*SPEF "IEEE 1481-1999"
*DESIGN "s9234"
*DATE "Thu Nov  9 11:34:42 2023"
*VENDOR "SYNOPSYS INC"
*PROGRAM "Synopsys Design Compiler cmos"
*VERSION "U-2022.12"
*DESIGN_FLOW "SYNTHESIS"
*DIVIDER /
*DELIMITER :
*BUS_DELIMITER []
*T_UNIT 1.0 NS
*C_UNIT 1.0 PF
*R_UNIT 1.0 KOHM
*L_UNIT 1.0 HENRY

*PORTS

CK I *L 0.000e+00 *S 0.000e+00 0.000e+00 
g102 I *L 0.000e+00 *S 0.000e+00 0.000e+00 
g1290 O *L 5.000e-02 *S 5.703e-01 3.967e-01 
g1293 O *L 5.000e-02 *S 5.828e-01 4.046e-01 
g22 I *L 0.000e+00 *S 0.000e+00 0.000e+00 
g23 I *L 0.000e+00 *S 0.000e+00 0.000e+00 
g2584 O *L 5.000e-02 *S 9.038e-02 5.606e-02 
g32 I *L 0.000e+00 *S 0.000e+00 0.000e+00 
g3222 O *L 5.000e-02 *S 2.328e-01 1.531e-01 
g36 I *L 0.000e+00 *S 0.000e+00 0.000e+00 
g3600 O *L 5.000e-02 *S 5.776e-01 4.013e-01 
g37 I *L 0.000e+00 *S 0.000e+00 0.000e+00 
g38 I *L 0.000e+00 *S 0.000e+00 0.000e+00 
g39 I *L 0.000e+00 *S 0.000e+00 0.000e+00 
g40 I *L 0.000e+00 *S 0.000e+00 0.000e+00 
g4098 O *L 5.000e-02 *S 2.328e-01 1.531e-01 
g4099 O *L 5.000e-02 *S 2.328e-01 1.531e-01 
g41 I *L 0.000e+00 *S 0.000e+00 0.000e+00 
g4100 O *L 5.000e-02 *S 2.328e-01 1.531e-01 
g4101 O *L 5.000e-02 *S 2.328e-01 1.531e-01 
g4102 O *L 5.000e-02 *S 2.328e-01 1.531e-01 
g4103 O *L 5.000e-02 *S 2.328e-01 1.531e-01 
g4104 O *L 5.000e-02 *S 0.000e+00 0.000e+00 
g4105 O *L 5.000e-02 *S 2.328e-01 1.531e-01 
g4106 O *L 5.000e-02 *S 2.328e-01 1.531e-01 
g4107 O *L 5.000e-02 *S 2.328e-01 1.531e-01 
g4108 O *L 5.000e-02 *S 2.328e-01 1.531e-01 
g4109 O *L 5.000e-02 *S 2.328e-01 1.531e-01 
g4110 O *L 5.000e-02 *S 4.039e-02 3.428e-02 
g4112 O *L 5.000e-02 *S 2.328e-01 1.531e-01 
g4121 O *L 5.000e-02 *S 9.743e-02 9.034e-02 
g42 I *L 0.000e+00 *S 0.000e+00 0.000e+00 
g4307 O *L 5.000e-02 *S 6.657e-01 4.564e-01 
g4321 O *L 5.000e-02 *S 5.776e-01 4.013e-01 
g44 I *L 0.000e+00 *S 0.000e+00 0.000e+00 
g4422 O *L 5.000e-02 *S 2.328e-01 1.531e-01 
g45 I *L 0.000e+00 *S 0.000e+00 0.000e+00 
g46 I *L 0.000e+00 *S 0.000e+00 0.000e+00 
g47 I *L 0.000e+00 *S 0.000e+00 0.000e+00 
g4809 O *L 5.000e-02 *S 4.849e-01 2.901e-01 
g5137 O *L 5.000e-02 *S 2.328e-01 1.531e-01 
g5468 O *L 5.000e-02 *S 2.328e-01 1.531e-01 
g5469 O *L 5.000e-02 *S 2.328e-01 1.531e-01 
g557 I *L 0.000e+00 *S 0.000e+00 0.000e+00 
g558 I *L 0.000e+00 *S 0.000e+00 0.000e+00 
g559 I *L 0.000e+00 *S 0.000e+00 0.000e+00 
g560 I *L 0.000e+00 *S 0.000e+00 0.000e+00 
g561 I *L 0.000e+00 *S 0.000e+00 0.000e+00 
g562 I *L 0.000e+00 *S 0.000e+00 0.000e+00 
g563 I *L 0.000e+00 *S 0.000e+00 0.000e+00 
g564 I *L 0.000e+00 *S 0.000e+00 0.000e+00 
g567 I *L 0.000e+00 *S 0.000e+00 0.000e+00 
g5692 O *L 5.000e-02 *S 4.862e-01 2.796e-01 
g6282 O *L 5.000e-02 *S 5.509e-02 4.550e-02 
g6284 O *L 5.000e-02 *S 8.477e-02 7.932e-02 
g6360 O *L 5.000e-02 *S 5.631e-02 4.697e-02 
g6362 O *L 5.000e-02 *S 1.235e-01 1.128e-01 
g6364 O *L 5.000e-02 *S 8.477e-02 7.932e-02 
g6366 O *L 5.000e-02 *S 8.477e-02 7.932e-02 
g6368 O *L 5.000e-02 *S 8.477e-02 7.932e-02 
g6370 O *L 5.000e-02 *S 1.166e-01 1.041e-01 
g6372 O *L 5.000e-02 *S 8.477e-02 7.932e-02 
g6374 O *L 5.000e-02 *S 8.477e-02 7.932e-02 
g639 I *L 0.000e+00 *S 0.000e+00 0.000e+00 
g6728 O *L 5.000e-02 *S 4.862e-01 2.796e-01 
g702 I *L 0.000e+00 *S 0.000e+00 0.000e+00 
g705 I *L 0.000e+00 *S 0.000e+00 0.000e+00 
g89 I *L 0.000e+00 *S 0.000e+00 0.000e+00 
test_si1 I *L 0.000e+00 *S 0.000e+00 0.000e+00 
test_so1 O *L 0.000e+00 *S 3.340e-01 2.494e-01 
test_si2 I *L 0.000e+00 *S 0.000e+00 0.000e+00 
test_si3 I *L 0.000e+00 *S 0.000e+00 0.000e+00 
test_so3 O *L 0.000e+00 *S 3.650e-01 2.683e-01 
test_si4 I *L 0.000e+00 *S 0.000e+00 0.000e+00 
test_so4 O *L 0.000e+00 *S 3.380e-01 2.173e-01 
test_si5 I *L 0.000e+00 *S 0.000e+00 0.000e+00 
test_so5 O *L 0.000e+00 *S 1.501e-01 1.265e-01 
test_si6 I *L 0.000e+00 *S 0.000e+00 0.000e+00 
test_so6 O *L 0.000e+00 *S 3.554e-01 2.261e-01 
test_si7 I *L 0.000e+00 *S 0.000e+00 0.000e+00 
test_si8 I *L 0.000e+00 *S 0.000e+00 0.000e+00 
test_se I *L 0.000e+00 *S 0.000e+00 0.000e+00 

*R_NET g102 2.970e-02
*DRIVER g102
*CELL NULL
*C2_R1_C1 1.485e-02 5.667e-06 1.485e-02 
*LOADS
*RC U24:B 1.683e-07
*END

*R_NET g22 1.004e-01
*DRIVER g22
*CELL NULL
*C2_R1_C1 5.019e-02 1.700e-05 5.019e-02 
*LOADS
*RC g4104 3.400e-07
*RC U26:B 1.144e-07
*RC U41:B 1.144e-07
*END

*R_NET g23 1.218e-02
*DRIVER g23
*CELL NULL
*C2_R1_C1 6.088e-03 5.667e-06 6.088e-03 
*LOADS
*RC U547:A 6.899e-08
*END

*R_NET g32 4.795e-02
*DRIVER g32
*CELL NULL
*C2_R1_C1 2.398e-02 2.267e-05 2.398e-02 
*LOADS
*RC DFF_47_I1_Q_reg:D 6.588e-08
*RC U832:A1N 6.384e-08
*RC U832:B1 7.302e-08
*RC U538:A 6.899e-08
*END

*R_NET g36 3.655e-02
*DRIVER g36
*CELL NULL
*C2_R1_C1 1.827e-02 1.700e-05 1.827e-02 
*LOADS
*RC U832:A0N 6.544e-08
*RC U832:B0 7.266e-08
*RC U541:A 6.899e-08
*END

*R_NET g37 4.795e-02
*DRIVER g37
*CELL NULL
*C2_R1_C1 2.398e-02 2.267e-05 2.398e-02 
*LOADS
*RC DFF_99_I1_Q_reg:D 6.588e-08
*RC U834:A1N 6.384e-08
*RC U834:B1 7.302e-08
*RC U543:A 6.899e-08
*END

*R_NET g38 4.751e-02
*DRIVER g38
*CELL NULL
*C2_R1_C1 2.375e-02 2.267e-05 2.375e-02 
*LOADS
*RC DFF_124_I1_Q_reg:D 6.212e-08
*RC U833:A0N 6.544e-08
*RC U833:B0 7.266e-08
*RC U539:A 6.899e-08
*END

*R_NET g39 4.751e-02
*DRIVER g39
*CELL NULL
*C2_R1_C1 2.375e-02 2.267e-05 2.375e-02 
*LOADS
*RC DFF_9_I1_Q_reg:D 6.212e-08
*RC U834:A0N 6.544e-08
*RC U834:B0 7.266e-08
*RC U537:A 6.899e-08
*END

*R_NET g40 4.729e-02
*DRIVER g40
*CELL NULL
*C2_R1_C1 2.364e-02 2.267e-05 2.364e-02 
*LOADS
*RC DFF_92_I1_Q_reg:D 6.212e-08
*RC U833:A1N 6.384e-08
*RC U833:B1 7.302e-08
*RC U532:A 6.899e-08
*END

*R_NET g41 1.236e-01
*DRIVER g41
*CELL NULL
*C2_R1_C1 6.180e-02 2.833e-05 6.180e-02 
*LOADS
*RC U27:A0 6.840e-08
*RC U12:A 2.922e-07
*RC U20:A0 9.421e-08
*RC U21:A0 9.421e-08
*RC U42:A 1.514e-07
*END

*R_NET g42 2.380e-02
*DRIVER g42
*CELL NULL
*C2_R1_C1 1.190e-02 1.133e-05 1.190e-02 
*LOADS
*RC DFF_103_I1_Q_reg:D 6.588e-08
*RC U536:A 6.899e-08
*END

*R_NET g44 1.218e-02
*DRIVER g44
*CELL NULL
*C2_R1_C1 6.088e-03 5.667e-06 6.088e-03 
*LOADS
*RC U546:A 6.899e-08
*END

*R_NET g45 3.606e-02
*DRIVER g45
*CELL NULL
*C2_R1_C1 1.803e-02 1.700e-05 1.803e-02 
*LOADS
*RC DFF_132_I1_Q_reg:D 6.588e-08
*RC U535:A 6.899e-08
*RC U520:A 6.945e-08
*END

*R_NET g46 2.314e-02
*DRIVER g46
*CELL NULL
*C2_R1_C1 1.157e-02 1.133e-05 1.157e-02 
*LOADS
*RC DFF_180_I1_Q_reg:D 6.212e-08
*RC U540:A 6.899e-08
*END

*R_NET g47 2.364e-02
*DRIVER g47
*CELL NULL
*C2_R1_C1 1.182e-02 1.133e-05 1.182e-02 
*LOADS
*RC U542:A 6.899e-08
*RC U450:A 6.496e-08
*END

*R_NET g557 1.321e-02
*DRIVER g557
*CELL NULL
*C2_R1_C1 6.606e-03 5.667e-06 6.606e-03 
*LOADS
*RC U747:A1 7.487e-08
*END

*R_NET g558 1.321e-02
*DRIVER g558
*CELL NULL
*C2_R1_C1 6.606e-03 5.667e-06 6.606e-03 
*LOADS
*RC U742:A1 7.487e-08
*END

*R_NET g559 1.297e-02
*DRIVER g559
*CELL NULL
*C2_R1_C1 6.484e-03 5.667e-06 6.484e-03 
*LOADS
*RC U724:B1 7.348e-08
*END

*R_NET g560 1.297e-02
*DRIVER g560
*CELL NULL
*C2_R1_C1 6.484e-03 5.667e-06 6.484e-03 
*LOADS
*RC U739:B1 7.348e-08
*END

*R_NET g561 1.310e-02
*DRIVER g561
*CELL NULL
*C2_R1_C1 6.552e-03 5.667e-06 6.552e-03 
*LOADS
*RC U763:A1 7.426e-08
*END

*R_NET g562 1.310e-02
*DRIVER g562
*CELL NULL
*C2_R1_C1 6.552e-03 5.667e-06 6.552e-03 
*LOADS
*RC U756:A1 7.426e-08
*END

*R_NET g563 1.310e-02
*DRIVER g563
*CELL NULL
*C2_R1_C1 6.552e-03 5.667e-06 6.552e-03 
*LOADS
*RC U776:A1 7.426e-08
*END

*R_NET g564 2.506e-02
*DRIVER g564
*CELL NULL
*C2_R1_C1 1.253e-02 1.133e-05 1.253e-02 
*LOADS
*RC U785:B1 7.302e-08
*RC U533:A 6.899e-08
*END

*R_NET g567 6.101e-02
*DRIVER g567
*CELL NULL
*C2_R1_C1 3.050e-02 2.267e-05 3.050e-02 
*LOADS
*RC U38:A 6.738e-08
*RC U40:B 1.430e-07
*RC DFF_76_I1_Q_reg:D 6.588e-08
*RC U519:A 6.945e-08
*END

*R_NET g639 7.232e-02
*DRIVER g639
*CELL NULL
*C2_R1_C1 3.616e-02 3.400e-05 3.616e-02 
*LOADS
*RC U773:B0 7.210e-08
*RC U639:B0 6.584e-08
*RC U552:A 7.082e-08
*RC U478:B0 6.703e-08
*RC U468:B0 6.703e-08
*RC U465:B0 6.703e-08
*END

*R_NET g702 2.355e-02
*DRIVER g702
*CELL NULL
*C2_R1_C1 1.177e-02 1.133e-05 1.177e-02 
*LOADS
*RC DFF_147_I1_Q_reg:D 6.212e-08
*RC U530:B 7.131e-08
*END

*R_NET g705 1.218e-02
*DRIVER g705
*CELL NULL
*C2_R1_C1 6.088e-03 5.667e-06 6.088e-03 
*LOADS
*RC U534:A 6.899e-08
*END

*R_NET g89 5.156e-02
*DRIVER g89
*CELL NULL
*C2_R1_C1 2.578e-02 5.667e-06 2.578e-02 
*LOADS
*RC U25:A 2.922e-07
*END

*R_NET g1290 7.125e-02
*DRIVER DFF_180_I1_Q_reg:Q
*CELL SDFFQX1
*C2_R1_C1 3.562e-02 1.133e-05 3.562e-02 
*LOADS
*RC DFF_183_I1_Q_reg:SI 6.373e-08
*RC g1290 3.400e-07
*END

*R_NET g1293 7.284e-02
*DRIVER DFF_191_I1_Q_reg:Q
*CELL SDFFQX1
*C2_R1_C1 3.642e-02 1.133e-05 3.642e-02 
*LOADS
*RC g1293 3.400e-07
*RC U530:A 7.278e-08
*END

*R_NET g2584 6.000e-02
*DRIVER U24:Y
*CELL NOR2X8
*C2_R1_C1 3.000e-02 5.667e-06 3.000e-02 
*LOADS
*RC g2584 3.400e-07
*END

*R_NET g3222 6.000e-02
*DRIVER U534:Y
*CELL BUFX2
*C2_R1_C1 3.000e-02 5.667e-06 3.000e-02 
*LOADS
*RC g3222 3.400e-07
*END

*R_NET g3600 7.218e-02
*DRIVER DFF_48_I1_Q_reg:Q
*CELL SDFFQX1
*C2_R1_C1 3.609e-02 1.133e-05 3.609e-02 
*LOADS
*RC g3600 3.400e-07
*RC U548:A 6.899e-08
*END

*R_NET g4098 6.000e-02
*DRIVER U547:Y
*CELL BUFX2
*C2_R1_C1 3.000e-02 5.667e-06 3.000e-02 
*LOADS
*RC g4098 3.400e-07
*END

*R_NET g4099 6.000e-02
*DRIVER U538:Y
*CELL BUFX2
*C2_R1_C1 3.000e-02 5.667e-06 3.000e-02 
*LOADS
*RC g4099 3.400e-07
*END

*R_NET g4100 6.000e-02
*DRIVER U541:Y
*CELL BUFX2
*C2_R1_C1 3.000e-02 5.667e-06 3.000e-02 
*LOADS
*RC g4100 3.400e-07
*END

*R_NET g4101 6.000e-02
*DRIVER U543:Y
*CELL BUFX2
*C2_R1_C1 3.000e-02 5.667e-06 3.000e-02 
*LOADS
*RC g4101 3.400e-07
*END

*R_NET g4102 6.000e-02
*DRIVER U539:Y
*CELL BUFX2
*C2_R1_C1 3.000e-02 5.667e-06 3.000e-02 
*LOADS
*RC g4102 3.400e-07
*END

*R_NET g4103 6.000e-02
*DRIVER U537:Y
*CELL BUFX2
*C2_R1_C1 3.000e-02 5.667e-06 3.000e-02 
*LOADS
*RC g4103 3.400e-07
*END

*R_NET g4105 6.000e-02
*DRIVER U532:Y
*CELL BUFX2
*C2_R1_C1 3.000e-02 5.667e-06 3.000e-02 
*LOADS
*RC g4105 3.400e-07
*END

*R_NET g4106 6.000e-02
*DRIVER U536:Y
*CELL BUFX2
*C2_R1_C1 3.000e-02 5.667e-06 3.000e-02 
*LOADS
*RC g4106 3.400e-07
*END

*R_NET g4107 6.000e-02
*DRIVER U546:Y
*CELL BUFX2
*C2_R1_C1 3.000e-02 5.667e-06 3.000e-02 
*LOADS
*RC g4107 3.400e-07
*END

*R_NET g4108 6.000e-02
*DRIVER U535:Y
*CELL BUFX2
*C2_R1_C1 3.000e-02 5.667e-06 3.000e-02 
*LOADS
*RC g4108 3.400e-07
*END

*R_NET g4109 6.000e-02
*DRIVER U540:Y
*CELL BUFX2
*C2_R1_C1 3.000e-02 5.667e-06 3.000e-02 
*LOADS
*RC g4109 3.400e-07
*END

*R_NET g4110 1.067e-01
*DRIVER U42:Y
*CELL BUFX20
*C2_R1_C1 5.337e-02 1.700e-05 5.337e-02 
*LOADS
*RC U9:A 1.659e-07
*RC U16:A 9.897e-08
*RC g4110 3.400e-07
*END

*R_NET g4112 6.000e-02
*DRIVER U542:Y
*CELL BUFX2
*C2_R1_C1 3.000e-02 5.667e-06 3.000e-02 
*LOADS
*RC g4112 3.400e-07
*END

*R_NET g4121 7.135e-02
*DRIVER U40:Y
*CELL NAND2X6
*C2_R1_C1 3.567e-02 1.133e-05 3.567e-02 
*LOADS
*RC U39:AN 6.429e-08
*RC g4121 3.400e-07
*END

*R_NET g4307 8.342e-02
*DRIVER DFF_190_I1_Q_reg:Q
*CELL SDFFQX1
*C2_R1_C1 4.171e-02 1.700e-05 4.171e-02 
*LOADS
*RC DFF_195_I1_Q_reg:SI 6.372e-08
*RC g4307 3.400e-07
*RC U549:A 6.899e-08
*END

*R_NET g4321 7.218e-02
*DRIVER DFF_161_I1_Q_reg:Q
*CELL SDFFQX1
*C2_R1_C1 3.609e-02 1.133e-05 3.609e-02 
*LOADS
*RC g4321 3.400e-07
*RC U531:A 6.899e-08
*END

*R_NET g4422 6.000e-02
*DRIVER U533:Y
*CELL BUFX2
*C2_R1_C1 3.000e-02 5.667e-06 3.000e-02 
*LOADS
*RC g4422 3.400e-07
*END

*R_NET g4809 6.000e-02
*DRIVER U708:Y
*CELL AND2X1
*C2_R1_C1 3.000e-02 5.667e-06 3.000e-02 
*LOADS
*RC g4809 3.400e-07
*END

*R_NET g5137 6.000e-02
*DRIVER U548:Y
*CELL BUFX2
*C2_R1_C1 3.000e-02 5.667e-06 3.000e-02 
*LOADS
*RC g5137 3.400e-07
*END

*R_NET g5468 6.000e-02
*DRIVER U549:Y
*CELL BUFX2
*C2_R1_C1 3.000e-02 5.667e-06 3.000e-02 
*LOADS
*RC g5468 3.400e-07
*END

*R_NET g5469 6.000e-02
*DRIVER U531:Y
*CELL BUFX2
*C2_R1_C1 3.000e-02 5.667e-06 3.000e-02 
*LOADS
*RC g5469 3.400e-07
*END

*R_NET g5692 6.000e-02
*DRIVER U521:Y
*CELL INVX1
*C2_R1_C1 3.000e-02 5.667e-06 3.000e-02 
*LOADS
*RC g5692 3.400e-07
*END

*R_NET n25 2.404e-02
*DRIVER U21:Y
*CELL OAI211X2
*C2_R1_C1 1.202e-02 5.667e-06 1.202e-02 
*LOADS
*RC U11:A 1.362e-07
*END

*R_NET g6284 6.000e-02
*DRIVER U14:Y
*CELL NAND2X6
*C2_R1_C1 3.000e-02 5.667e-06 3.000e-02 
*LOADS
*RC g6284 3.400e-07
*END

*R_NET g6360 6.000e-02
*DRIVER U5:Y
*CELL INVX12
*C2_R1_C1 3.000e-02 5.667e-06 3.000e-02 
*LOADS
*RC g6360 3.400e-07
*END

*R_NET g6362 6.000e-02
*DRIVER U31:Y
*CELL NAND2X4
*C2_R1_C1 3.000e-02 5.667e-06 3.000e-02 
*LOADS
*RC g6362 3.400e-07
*END

*R_NET g6364 6.000e-02
*DRIVER U7:Y
*CELL NAND2X6
*C2_R1_C1 3.000e-02 5.667e-06 3.000e-02 
*LOADS
*RC g6364 3.400e-07
*END

*R_NET g6366 6.000e-02
*DRIVER U8:Y
*CELL NAND2X6
*C2_R1_C1 3.000e-02 5.667e-06 3.000e-02 
*LOADS
*RC g6366 3.400e-07
*END

*R_NET g6368 6.000e-02
*DRIVER U6:Y
*CELL NAND2X6
*C2_R1_C1 3.000e-02 5.667e-06 3.000e-02 
*LOADS
*RC g6368 3.400e-07
*END

*R_NET g6370 6.000e-02
*DRIVER U30:Y
*CELL NAND2BX4
*C2_R1_C1 3.000e-02 5.667e-06 3.000e-02 
*LOADS
*RC g6370 3.400e-07
*END

*R_NET g6372 6.000e-02
*DRIVER U13:Y
*CELL NAND2X6
*C2_R1_C1 3.000e-02 5.667e-06 3.000e-02 
*LOADS
*RC g6372 3.400e-07
*END

*R_NET g6374 6.000e-02
*DRIVER U15:Y
*CELL NAND2X6
*C2_R1_C1 3.000e-02 5.667e-06 3.000e-02 
*LOADS
*RC g6374 3.400e-07
*END

*R_NET g6728 6.000e-02
*DRIVER U522:Y
*CELL INVX1
*C2_R1_C1 3.000e-02 5.667e-06 3.000e-02 
*LOADS
*RC g6728 3.400e-07
*END

*R_NET g678 8.562e-02
*DRIVER DFF_0_I1_Q_reg:Q
*CELL SDFFQX2
*C2_R1_C1 4.281e-02 3.967e-05 4.281e-02 
*LOADS
*RC DFF_3_I1_Q_reg:SI 6.372e-08
*RC U824:A1 6.796e-08
*RC U735:B 7.393e-08
*RC U723:B 7.332e-08
*RC U647:A 7.082e-08
*RC U618:B0 6.776e-08
*RC U595:A0 6.765e-08
*END

*R_NET g207 3.476e-02
*DRIVER DFF_3_I1_Q_reg:Q
*CELL SDFFQXL
*C2_R1_C1 1.738e-02 1.700e-05 1.738e-02 
*LOADS
*RC DFF_5_I1_Q_reg:SI 6.373e-08
*RC U684:A1N 6.553e-08
*RC U612:A 6.772e-08
*END

*R_NET g461 4.700e-02
*DRIVER DFF_5_I1_Q_reg:Q
*CELL SDFFQX1
*C2_R1_C1 2.350e-02 2.267e-05 2.350e-02 
*LOADS
*RC U4:A1 6.496e-08
*RC DFF_6_I1_Q_reg:SI 6.373e-08
*RC U831:B1 6.338e-08
*RC U788:A1 7.426e-08
*END

*R_NET g18 4.653e-02
*DRIVER DFF_6_I1_Q_reg:Q
*CELL SDFFQX1
*C2_R1_C1 2.326e-02 2.267e-05 2.326e-02 
*LOADS
*RC DFF_9_I1_Q_reg:SI 6.373e-08
*RC DFF_26_I1_Q_reg:D 6.308e-08
*RC U558:A1N 6.384e-08
*RC U558:B1 7.302e-08
*END

*R_NET g689 5.155e-02
*DRIVER DFF_9_I1_Q_reg:Q
*CELL SDFFQX1
*C2_R1_C1 2.577e-02 2.267e-05 2.577e-02 
*LOADS
*RC U35:B 6.524e-08
*RC DFF_10_I1_Q_reg:SI 6.373e-08
*RC U730:B 7.609e-08
*RC U728:B 8.704e-08
*END

*R_NET g24 4.653e-02
*DRIVER DFF_10_I1_Q_reg:Q
*CELL SDFFQX1
*C2_R1_C1 2.326e-02 2.267e-05 2.326e-02 
*LOADS
*RC DFF_108_I1_Q_reg:D 6.308e-08
*RC DFF_11_I1_Q_reg:SI 6.373e-08
*RC U554:A1N 6.384e-08
*RC U554:B1 7.302e-08
*END

*R_NET g465 6.981e-02
*DRIVER DFF_11_I1_Q_reg:Q
*CELL SDFFQX1
*C2_R1_C1 3.490e-02 3.400e-05 3.490e-02 
*LOADS
*RC DFF_14_I1_Q_reg:SI 6.373e-08
*RC U806:A0 6.765e-08
*RC U779:B1 6.338e-08
*RC U653:B0 6.372e-08
*RC U586:A0 6.765e-08
*RC U494:A 6.945e-08
*END

*R_NET g676 6.594e-02
*DRIVER DFF_14_I1_Q_reg:Q
*CELL SDFFQX1
*C2_R1_C1 3.297e-02 2.833e-05 3.297e-02 
*LOADS
*RC U642:A 7.472e-08
*RC U26:AN 8.050e-08
*RC U41:AN 8.050e-08
*RC DFF_15_I1_Q_reg:SI 6.372e-08
*RC U726:A 7.425e-08
*END

*R_NET g622 3.571e-02
*DRIVER DFF_15_I1_Q_reg:Q
*CELL SDFFQXL
*C2_R1_C1 1.786e-02 1.700e-05 1.786e-02 
*LOADS
*RC DFF_17_I1_Q_reg:SI 6.372e-08
*RC U701:B 7.131e-08
*RC U468:A1 6.733e-08
*END

*R_NET g278 3.471e-02
*DRIVER DFF_17_I1_Q_reg:Q
*CELL SDFFQXL
*C2_R1_C1 1.735e-02 1.700e-05 1.735e-02 
*LOADS
*RC DFF_19_I1_Q_reg:SI 6.373e-08
*RC U429:A 6.496e-08
*RC U424:B0 6.798e-08
*END

*R_NET g598 5.886e-02
*DRIVER DFF_19_I1_Q_reg:Q
*CELL SDFFQX1
*C2_R1_C1 2.943e-02 2.833e-05 2.943e-02 
*LOADS
*RC U39:B 6.766e-08
*RC U38:B 6.682e-08
*RC DFF_20_I1_Q_reg:SI 6.372e-08
*RC DFF_156_I1_Q_reg:D 6.588e-08
*RC U706:A 6.945e-08
*END

*R_NET g554 3.405e-02
*DRIVER DFF_20_I1_Q_reg:Q
*CELL SDFFQXL
*C2_R1_C1 1.703e-02 1.700e-05 1.703e-02 
*LOADS
*RC DFF_23_I1_Q_reg:SI 6.372e-08
*RC U814:A1N 6.384e-08
*RC U762:A0 6.542e-08
*END

*R_NET g48 3.540e-02
*DRIVER DFF_23_I1_Q_reg:Q
*CELL SDFFQXL
*C2_R1_C1 1.770e-02 1.700e-05 1.770e-02 
*LOADS
*RC DFF_24_I1_Q_reg:SI 6.373e-08
*RC U555:A1N 6.384e-08
*RC U555:B1 7.302e-08
*END

*R_NET g590 5.865e-02
*DRIVER DFF_24_I1_Q_reg:Q
*CELL SDFFQX1
*C2_R1_C1 2.932e-02 2.833e-05 2.932e-02 
*LOADS
*RC DFF_25_I1_Q_reg:SI 6.372e-08
*RC U817:A 6.646e-08
*RC U790:A0 6.739e-08
*RC U772:A 7.278e-08
*RC U470:A1N 6.199e-08
*END

*R_NET g551 3.406e-02
*DRIVER DFF_25_I1_Q_reg:Q
*CELL SDFFQXL
*C2_R1_C1 1.703e-02 1.700e-05 1.703e-02 
*LOADS
*RC DFF_26_I1_Q_reg:SI 6.376e-08
*RC U797:A1N 6.384e-08
*RC U755:A0 6.542e-08
*END

*R_NET g682 9.663e-02
*DRIVER DFF_26_I1_Q_reg:Q
*CELL SDFFQX2
*C2_R1_C1 4.832e-02 4.533e-05 4.832e-02 
*LOADS
*RC U33:A 7.669e-08
*RC test_so1 5.667e-08
*RC U821:A1 6.796e-08
*RC U719:A 7.425e-08
*RC U621:B0 6.776e-08
*RC U598:A0 6.765e-08
*RC U529:B 6.714e-08
*RC U509:A 6.945e-08
*END

*R_NET g11 5.929e-02
*DRIVER DFF_27_I1_Q_reg:Q
*CELL SDFFQX1
*C2_R1_C1 2.965e-02 2.833e-05 2.965e-02 
*LOADS
*RC U30:AN 8.001e-08
*RC DFF_98_I1_Q_reg:D 6.212e-08
*RC DFF_28_I1_Q_reg:SI 6.373e-08
*RC U37:A1N 6.308e-08
*RC U37:B1 6.705e-08
*END

*R_NET g606 4.734e-02
*DRIVER DFF_28_I1_Q_reg:Q
*CELL SDFFQX1
*C2_R1_C1 2.367e-02 2.267e-05 2.367e-02 
*LOADS
*RC DFF_30_I1_Q_reg:SI 6.372e-08
*RC DFF_176_I1_Q_reg:D 6.588e-08
*RC U711:A1 6.733e-08
*RC U710:B 7.131e-08
*END

*R_NET g646 3.513e-02
*DRIVER DFF_30_I1_Q_reg:Q
*CELL SDFFQXL
*C2_R1_C1 1.756e-02 1.700e-05 1.756e-02 
*LOADS
*RC DFF_35_I1_Q_reg:SI 6.373e-08
*RC DFF_157_I1_Q_reg:D 6.588e-08
*RC U490:A 6.945e-08
*END

*R_NET g684 7.260e-02
*DRIVER DFF_35_I1_Q_reg:Q
*CELL SDFFQX1
*C2_R1_C1 3.630e-02 3.400e-05 3.630e-02 
*LOADS
*RC DFF_36_I1_Q_reg:SI 6.372e-08
*RC U819:A1 6.796e-08
*RC U641:B 7.436e-08
*RC U620:A1 6.796e-08
*RC U597:A1 6.796e-08
*RC U488:A 6.945e-08
*END

*R_NET g619 2.350e-02
*DRIVER DFF_36_I1_Q_reg:Q
*CELL SDFFQXL
*C2_R1_C1 1.175e-02 1.133e-05 1.175e-02 
*LOADS
*RC DFF_37_I1_Q_reg:SI 6.373e-08
*RC U514:A 6.945e-08
*END

*R_NET g208 6.947e-02
*DRIVER DFF_37_I1_Q_reg:Q
*CELL SDFFQX1
*C2_R1_C1 3.474e-02 3.400e-05 3.474e-02 
*LOADS
*RC DFF_38_I1_Q_reg:SI 6.373e-08
*RC U671:A0N 6.544e-08
*RC U627:AN 6.577e-08
*RC U624:A1N 6.399e-08
*RC U624:B1 6.702e-08
*RC U613:A 6.772e-08
*END

*R_NET g248 2.409e-02
*DRIVER DFF_38_I1_Q_reg:Q
*CELL SDFFQX1
*C2_R1_C1 1.204e-02 1.133e-05 1.204e-02 
*LOADS
*RC DFF_40_I1_Q_reg:SI 6.372e-08
*RC U580:A 7.278e-08
*END

*R_NET g625 2.350e-02
*DRIVER DFF_40_I1_Q_reg:Q
*CELL SDFFQXL
*C2_R1_C1 1.175e-02 1.133e-05 1.175e-02 
*LOADS
*RC DFF_42_I1_Q_reg:SI 6.373e-08
*RC U518:A 6.945e-08
*END

*R_NET g437 4.710e-02
*DRIVER DFF_42_I1_Q_reg:Q
*CELL SDFFQX1
*C2_R1_C1 2.355e-02 2.267e-05 2.355e-02 
*LOADS
*RC DFF_43_I1_Q_reg:SI 6.373e-08
*RC U816:A1 6.480e-08
*RC U799:B1 6.338e-08
*RC U746:A0 7.501e-08
*END

*R_NET g276 7.190e-02
*DRIVER DFF_43_I1_Q_reg:Q
*CELL SDFFQX1
*C2_R1_C1 3.595e-02 3.400e-05 3.595e-02 
*LOADS
*RC DFF_44_I1_Q_reg:SI 6.373e-08
*RC U691:A0 6.765e-08
*RC U597:A0 6.765e-08
*RC U593:A0 6.765e-08
*RC U589:B 7.131e-08
*RC U500:A 6.945e-08
*END

*R_NET g3 4.640e-02
*DRIVER DFF_44_I1_Q_reg:Q
*CELL SDFFQX1
*C2_R1_C1 2.320e-02 2.267e-05 2.320e-02 
*LOADS
*RC DFF_46_I1_Q_reg:SI 6.373e-08
*RC DFF_209_I1_Q_reg:D 6.212e-08
*RC U563:A0 6.765e-08
*RC U516:A 6.945e-08
*END

*R_NET g224 3.425e-02
*DRIVER DFF_46_I1_Q_reg:Q
*CELL SDFFQX1
*C2_R1_C1 1.712e-02 1.700e-05 1.712e-02 
*LOADS
*RC DFF_47_I1_Q_reg:SI 6.372e-08
*RC U485:B 6.541e-08
*RC U448:A 6.496e-08
*END

*R_NET g685 3.590e-02
*DRIVER DFF_47_I1_Q_reg:Q
*CELL SDFFQXL
*C2_R1_C1 1.795e-02 1.700e-05 1.795e-02 
*LOADS
*RC DFF_50_I1_Q_reg:SI 6.372e-08
*RC U727:A1 6.632e-08
*RC U641:C 7.338e-08
*END

*R_NET g282 3.512e-02
*DRIVER DFF_50_I1_Q_reg:Q
*CELL SDFFQXL
*C2_R1_C1 1.756e-02 1.700e-05 1.756e-02 
*LOADS
*RC DFF_52_I1_Q_reg:SI 6.372e-08
*RC U600:B0 6.584e-08
*RC U505:A 6.945e-08
*END

*R_NET g206 3.689e-02
*DRIVER DFF_52_I1_Q_reg:Q
*CELL SDFFQXL
*C2_R1_C1 1.845e-02 1.700e-05 1.845e-02 
*LOADS
*RC DFF_48_I1_Q_reg:SI 6.373e-08
*RC U622:B0 7.588e-08
*RC U512:A 6.945e-08
*END

*R_NET g449 4.692e-02
*DRIVER DFF_53_I1_Q_reg:Q
*CELL SDFFQX1
*C2_R1_C1 2.346e-02 2.267e-05 2.346e-02 
*LOADS
*RC DFF_57_I1_Q_reg:SI 6.373e-08
*RC U3:B1 6.309e-08
*RC U813:A1 6.480e-08
*RC U766:A1 7.426e-08
*END

*R_NET g426 4.700e-02
*DRIVER DFF_57_I1_Q_reg:Q
*CELL SDFFQX1
*C2_R1_C1 2.350e-02 2.267e-05 2.350e-02 
*LOADS
*RC U2:A1 6.496e-08
*RC DFF_58_I1_Q_reg:SI 6.373e-08
*RC U810:B1 6.338e-08
*RC U742:B0 7.425e-08
*END

*R_NET g634 5.766e-02
*DRIVER DFF_58_I1_Q_reg:Q
*CELL SDFFQX1
*C2_R1_C1 2.883e-02 2.833e-05 2.883e-02 
*LOADS
*RC DFF_46_I1_Q_reg:D 6.212e-08
*RC DFF_61_I1_Q_reg:SI 6.373e-08
*RC U39:C 6.763e-08
*RC U38:C 6.592e-08
*RC U709:A1 6.733e-08
*END

*R_NET g281 7.191e-02
*DRIVER DFF_61_I1_Q_reg:Q
*CELL SDFFQX1
*C2_R1_C1 3.596e-02 3.400e-05 3.596e-02 
*LOADS
*RC DFF_63_I1_Q_reg:SI 6.373e-08
*RC U661:A0 6.896e-08
*RC U602:B 7.199e-08
*RC U599:A0N 6.265e-08
*RC U599:B0 6.741e-08
*RC U592:A 7.278e-08
*END

*R_NET g15 4.561e-02
*DRIVER DFF_63_I1_Q_reg:Q
*CELL SDFFQX1
*C2_R1_C1 2.280e-02 2.267e-05 2.280e-02 
*LOADS
*RC DFF_127_I1_Q_reg:D 6.212e-08
*RC DFF_64_I1_Q_reg:SI 6.372e-08
*RC U561:A0 6.765e-08
*RC U435:A 6.496e-08
*END

*R_NET g631 2.350e-02
*DRIVER DFF_64_I1_Q_reg:Q
*CELL SDFFQXL
*C2_R1_C1 1.175e-02 1.133e-05 1.175e-02 
*LOADS
*RC DFF_68_I1_Q_reg:SI 6.373e-08
*RC U506:A 6.945e-08
*END

*R_NET g457 4.510e-02
*DRIVER DFF_68_I1_Q_reg:Q
*CELL SDFFQX1
*C2_R1_C1 2.255e-02 2.267e-05 2.255e-02 
*LOADS
*RC U4:B1 6.309e-08
*RC DFF_69_I1_Q_reg:SI 6.372e-08
*RC U798:A1 6.480e-08
*RC U775:A1N 6.399e-08
*END

*R_NET g486 3.447e-02
*DRIVER DFF_69_I1_Q_reg:Q
*CELL SDFFQXL
*C2_R1_C1 1.723e-02 1.700e-05 1.723e-02 
*LOADS
*RC DFF_70_I1_Q_reg:SI 6.373e-08
*RC U786:A0 6.739e-08
*RC U708:A 6.419e-08
*END

*R_NET g471 6.046e-02
*DRIVER DFF_70_I1_Q_reg:Q
*CELL SDFFQX1
*C2_R1_C1 3.023e-02 2.833e-05 3.023e-02 
*LOADS
*RC DFF_73_I1_Q_reg:SI 6.373e-08
*RC U629:A0 7.501e-08
*RC U628:A 6.646e-08
*RC U586:A1 6.796e-08
*RC U507:A 6.945e-08
*END

*R_NET g418 4.583e-02
*DRIVER DFF_73_I1_Q_reg:Q
*CELL SDFFQX1
*C2_R1_C1 2.292e-02 2.267e-05 2.292e-02 
*LOADS
*RC DFF_74_I1_Q_reg:SI 6.372e-08
*RC U811:A1 6.480e-08
*RC U805:B1 6.338e-08
*RC U740:A1 6.782e-08
*END

*R_NET g402 2.350e-02
*DRIVER DFF_74_I1_Q_reg:Q
*CELL SDFFQXL
*C2_R1_C1 1.175e-02 1.133e-05 1.175e-02 
*LOADS
*RC DFF_75_I1_Q_reg:SI 6.372e-08
*RC U511:A 6.945e-08
*END

*R_NET g297 2.350e-02
*DRIVER DFF_75_I1_Q_reg:Q
*CELL SDFFQXL
*C2_R1_C1 1.175e-02 1.133e-05 1.175e-02 
*LOADS
*RC DFF_76_I1_Q_reg:SI 6.372e-08
*RC U496:A 6.945e-08
*END

*R_NET g212 2.271e-02
*DRIVER DFF_76_I1_Q_reg:Q
*CELL SDFFQXL
*C2_R1_C1 1.135e-02 1.133e-05 1.135e-02 
*LOADS
*RC DFF_77_I1_Q_reg:SI 6.372e-08
*RC U575:A 6.496e-08
*END

*R_NET g410 2.350e-02
*DRIVER DFF_77_I1_Q_reg:Q
*CELL SDFFQXL
*C2_R1_C1 1.175e-02 1.133e-05 1.175e-02 
*LOADS
*RC DFF_78_I1_Q_reg:SI 6.373e-08
*RC U498:A 6.945e-08
*END

*R_NET g430 4.678e-02
*DRIVER DFF_78_I1_Q_reg:Q
*CELL SDFFQX1
*C2_R1_C1 2.339e-02 2.267e-05 2.339e-02 
*LOADS
*RC DFF_79_I1_Q_reg:SI 6.373e-08
*RC U2:B1 6.309e-08
*RC U831:A1 6.480e-08
*RC U747:B1 7.348e-08
*END

*R_NET g33 4.505e-02
*DRIVER DFF_79_I1_Q_reg:Q
*CELL SDFFQX1
*C2_R1_C1 2.252e-02 2.267e-05 2.252e-02 
*LOADS
*RC DFF_123_I1_Q_reg:D 6.212e-08
*RC test_so3 5.667e-08
*RC U561:B1 6.703e-08
*RC U499:A 6.945e-08
*END

*R_NET g662 3.586e-02
*DRIVER DFF_80_I1_Q_reg:Q
*CELL SDFFQXL
*C2_R1_C1 1.793e-02 1.700e-05 1.793e-02 
*LOADS
*RC DFF_81_I1_Q_reg:SI 6.373e-08
*RC U726:C 7.210e-08
*RC U421:A0 6.739e-08
*END

*R_NET g453 4.700e-02
*DRIVER DFF_81_I1_Q_reg:Q
*CELL SDFFQX1
*C2_R1_C1 2.350e-02 2.267e-05 2.350e-02 
*LOADS
*RC U3:A1 6.496e-08
*RC DFF_82_I1_Q_reg:SI 6.372e-08
*RC U798:B1 6.338e-08
*RC U760:A1 7.426e-08
*END

*R_NET g269 2.336e-02
*DRIVER DFF_82_I1_Q_reg:Q
*CELL SDFFQXL
*C2_R1_C1 1.168e-02 1.133e-05 1.168e-02 
*LOADS
*RC DFF_83_I1_Q_reg:SI 6.373e-08
*RC U659:A 6.864e-08
*END

*R_NET g574 4.689e-02
*DRIVER DFF_83_I1_Q_reg:Q
*CELL SDFFQX1
*C2_R1_C1 2.345e-02 2.267e-05 2.345e-02 
*LOADS
*RC DFF_84_I1_Q_reg:SI 6.373e-08
*RC U818:C 6.781e-08
*RC U771:A 6.772e-08
*RC U456:A 6.646e-08
*END

*R_NET g441 4.703e-02
*DRIVER DFF_84_I1_Q_reg:Q
*CELL SDFFQX1
*C2_R1_C1 2.351e-02 2.267e-05 2.351e-02 
*LOADS
*RC DFF_87_I1_Q_reg:SI 6.373e-08
*RC U34:B1 6.309e-08
*RC U799:A1 6.480e-08
*RC U724:A1 7.487e-08
*END

*R_NET g211 4.931e-02
*DRIVER DFF_87_I1_Q_reg:Q
*CELL SDFFQX1
*C2_R1_C1 2.465e-02 2.267e-05 2.465e-02 
*LOADS
*RC DFF_88_I1_Q_reg:SI 6.373e-08
*RC U635:A2 7.566e-08
*RC U633:A1 7.426e-08
*RC U631:AN 6.577e-08
*END

*R_NET g586 4.715e-02
*DRIVER DFF_88_I1_Q_reg:Q
*CELL SDFFQX1
*C2_R1_C1 2.357e-02 2.267e-05 2.357e-02 
*LOADS
*RC DFF_89_I1_Q_reg:SI 6.373e-08
*RC U826:A0 6.765e-08
*RC U818:D 6.635e-08
*RC U501:A 6.945e-08
*END

*R_NET g571 4.605e-02
*DRIVER DFF_89_I1_Q_reg:Q
*CELL SDFFQX1
*C2_R1_C1 2.303e-02 2.267e-05 2.303e-02 
*LOADS
*RC DFF_90_I1_Q_reg:SI 6.373e-08
*RC DFF_183_I1_Q_reg:D 6.212e-08
*RC U437:A0 6.866e-08
*RC U433:A 6.646e-08
*END

*R_NET g29 4.646e-02
*DRIVER DFF_90_I1_Q_reg:Q
*CELL SDFFQX1
*C2_R1_C1 2.323e-02 2.267e-05 2.323e-02 
*LOADS
*RC DFF_92_I1_Q_reg:SI 6.373e-08
*RC DFF_10_I1_Q_reg:D 6.212e-08
*RC U564:A1 6.796e-08
*RC U491:A 6.945e-08
*END

*R_NET g698 4.812e-02
*DRIVER DFF_92_I1_Q_reg:Q
*CELL SDFFQX1
*C2_R1_C1 2.406e-02 2.267e-05 2.406e-02 
*LOADS
*RC U35:A 6.644e-08
*RC DFF_93_I1_Q_reg:SI 6.372e-08
*RC U730:A 7.669e-08
*RC U727:B0 6.584e-08
*END

*R_NET g654 3.513e-02
*DRIVER DFF_93_I1_Q_reg:Q
*CELL SDFFQXL
*C2_R1_C1 1.756e-02 1.700e-05 1.756e-02 
*LOADS
*RC DFF_94_I1_Q_reg:SI 6.372e-08
*RC DFF_114_I1_Q_reg:D 6.588e-08
*RC U489:A 6.945e-08
*END

*R_NET g293 2.350e-02
*DRIVER DFF_94_I1_Q_reg:Q
*CELL SDFFQXL
*C2_R1_C1 1.175e-02 1.133e-05 1.175e-02 
*LOADS
*RC DFF_96_I1_Q_reg:SI 6.373e-08
*RC U502:A 6.945e-08
*END

*R_NET g445 4.711e-02
*DRIVER DFF_96_I1_Q_reg:Q
*CELL SDFFQX1
*C2_R1_C1 2.355e-02 2.267e-05 2.355e-02 
*LOADS
*RC U34:A1 6.496e-08
*RC DFF_98_I1_Q_reg:SI 6.373e-08
*RC U813:B1 6.338e-08
*RC U739:A1 7.487e-08
*END

*R_NET g6 4.658e-02
*DRIVER DFF_98_I1_Q_reg:Q
*CELL SDFFQX1
*C2_R1_C1 2.329e-02 2.267e-05 2.329e-02 
*LOADS
*RC DFF_122_I1_Q_reg:D 6.212e-08
*RC DFF_99_I1_Q_reg:SI 6.372e-08
*RC U558:A0N 6.544e-08
*RC U558:B0 7.266e-08
*END

*R_NET g687 3.883e-02
*DRIVER DFF_99_I1_Q_reg:Q
*CELL SDFFQXL
*C2_R1_C1 1.941e-02 1.700e-05 1.941e-02 
*LOADS
*RC DFF_102_I1_Q_reg:SI 6.372e-08
*RC U732:A 6.772e-08
*RC U731:B 8.858e-08
*END

*R_NET g504 2.226e-02
*DRIVER DFF_102_I1_Q_reg:Q
*CELL SDFFQXL
*C2_R1_C1 1.113e-02 1.133e-05 1.113e-02 
*LOADS
*RC test_so4 5.667e-08
*RC U515:A 6.945e-08
*END

*R_NET g665 2.221e-02
*DRIVER DFF_103_I1_Q_reg:Q
*CELL SDFFQXL
*C2_R1_C1 1.110e-02 1.133e-05 1.110e-02 
*LOADS
*RC DFF_105_I1_Q_reg:SI 6.373e-08
*RC DFF_148_I1_Q_reg:D 6.212e-08
*END

*R_NET g541 4.590e-02
*DRIVER DFF_105_I1_Q_reg:Q
*CELL SDFFQX1
*C2_R1_C1 2.295e-02 2.267e-05 2.295e-02 
*LOADS
*RC DFF_108_I1_Q_reg:SI 6.376e-08
*RC U36:A 6.764e-08
*RC U807:A 6.496e-08
*RC U762:B0 6.372e-08
*END

*R_NET g696 9.665e-02
*DRIVER DFF_108_I1_Q_reg:Q
*CELL SDFFQX2
*C2_R1_C1 4.832e-02 4.533e-05 4.832e-02 
*LOADS
*RC DFF_110_I1_Q_reg:SI 6.373e-08
*RC U819:B1 6.703e-08
*RC U753:C 6.573e-08
*RC U719:B 7.332e-08
*RC U656:A 7.299e-08
*RC U643:A 7.082e-08
*RC U620:B1 6.703e-08
*RC U597:B1 6.703e-08
*END

*R_NET g536 5.807e-02
*DRIVER DFF_110_I1_Q_reg:Q
*CELL SDFFQX1
*C2_R1_C1 2.903e-02 2.833e-05 2.903e-02 
*LOADS
*RC U36:B 6.714e-08
*RC DFF_113_I1_Q_reg:SI 6.372e-08
*RC U808:A0 6.896e-08
*RC U755:B1 6.338e-08
*RC U654:B0 6.584e-08
*END

*R_NET g545 3.575e-02
*DRIVER DFF_113_I1_Q_reg:Q
*CELL SDFFQXL
*C2_R1_C1 1.787e-02 1.700e-05 1.787e-02 
*LOADS
*RC DFF_114_I1_Q_reg:SI 6.372e-08
*RC U802:A1N 6.384e-08
*RC U784:A0 7.501e-08
*END

*R_NET g254 2.271e-02
*DRIVER DFF_114_I1_Q_reg:Q
*CELL SDFFQXL
*C2_R1_C1 1.135e-02 1.133e-05 1.135e-02 
*LOADS
*RC DFF_117_I1_Q_reg:SI 6.373e-08
*RC U449:A 6.496e-08
*END

*R_NET g2 4.675e-02
*DRIVER DFF_117_I1_Q_reg:Q
*CELL SDFFQX1
*C2_R1_C1 2.337e-02 2.267e-05 2.337e-02 
*LOADS
*RC DFF_0_I1_Q_reg:D 6.308e-08
*RC DFF_121_I1_Q_reg:SI 6.372e-08
*RC U557:A0N 6.544e-08
*RC U557:B0 7.266e-08
*END

*R_NET g628 3.597e-02
*DRIVER DFF_121_I1_Q_reg:Q
*CELL SDFFQXL
*C2_R1_C1 1.799e-02 1.700e-05 1.799e-02 
*LOADS
*RC DFF_122_I1_Q_reg:SI 6.373e-08
*RC U703:A 7.278e-08
*RC U465:A1 6.733e-08
*END

*R_NET g679 8.530e-02
*DRIVER DFF_122_I1_Q_reg:Q
*CELL SDFFQX1
*C2_R1_C1 4.265e-02 3.967e-05 4.265e-02 
*LOADS
*RC DFF_123_I1_Q_reg:SI 6.373e-08
*RC U823:B1 6.703e-08
*RC U735:A 7.345e-08
*RC U723:A 7.425e-08
*RC U649:A 7.082e-08
*RC U615:B1 6.703e-08
*RC U593:B1 6.703e-08
*END

*R_NET g28 4.658e-02
*DRIVER DFF_123_I1_Q_reg:Q
*CELL SDFFQX1
*C2_R1_C1 2.329e-02 2.267e-05 2.329e-02 
*LOADS
*RC DFF_124_I1_Q_reg:SI 6.373e-08
*RC DFF_35_I1_Q_reg:D 6.212e-08
*RC U554:A0N 6.544e-08
*RC U554:B0 7.266e-08
*END

*R_NET g688 4.883e-02
*DRIVER DFF_124_I1_Q_reg:Q
*CELL SDFFQX1
*C2_R1_C1 2.442e-02 2.267e-05 2.442e-02 
*LOADS
*RC DFF_125_I1_Q_reg:SI 6.373e-08
*RC U730:C 7.616e-08
*RC U727:A0 6.739e-08
*RC U504:A 6.945e-08
*END

*R_NET g283 4.931e-02
*DRIVER DFF_125_I1_Q_reg:Q
*CELL SDFFQX1
*C2_R1_C1 2.465e-02 2.267e-05 2.465e-02 
*LOADS
*RC DFF_126_I1_Q_reg:SI 6.372e-08
*RC U609:A2 7.566e-08
*RC U607:A1 7.426e-08
*RC U605:AN 6.577e-08
*END

*R_NET g613 3.401e-02
*DRIVER DFF_126_I1_Q_reg:Q
*CELL SDFFQXL
*C2_R1_C1 1.700e-02 1.700e-05 1.700e-02 
*LOADS
*RC DFF_127_I1_Q_reg:SI 6.373e-08
*RC U638:B 6.479e-08
*RC U637:A 6.419e-08
*END

*R_NET g10 4.705e-02
*DRIVER DFF_127_I1_Q_reg:Q
*CELL SDFFQX1
*C2_R1_C1 2.353e-02 2.267e-05 2.353e-02 
*LOADS
*RC DFF_128_I1_Q_reg:SI 6.373e-08
*RC DFF_129_I1_Q_reg:D 6.606e-08
*RC U557:A1N 6.384e-08
*RC U557:B1 7.302e-08
*END

*R_NET g14 4.670e-02
*DRIVER DFF_128_I1_Q_reg:Q
*CELL SDFFQX1
*C2_R1_C1 2.335e-02 2.267e-05 2.335e-02 
*LOADS
*RC DFF_129_I1_Q_reg:SI 6.345e-08
*RC DFF_207_I1_Q_reg:D 6.308e-08
*RC U556:A0N 6.544e-08
*RC U556:B0 7.266e-08
*END

*R_NET g680 8.258e-02
*DRIVER DFF_129_I1_Q_reg:Q
*CELL SDFFQX4
*C2_R1_C1 4.129e-02 3.967e-05 4.129e-02 
*LOADS
*RC test_so5 5.667e-08