*SPEF "IEEE 1481-1999"
*DESIGN "s400"
*DATE "Thu Nov  9 11:28:22 2023"
*VENDOR "SYNOPSYS INC"
*PROGRAM "Synopsys Design Compiler cmos"
*VERSION "U-2022.12"
*DESIGN_FLOW "SYNTHESIS"
*DIVIDER /
*DELIMITER :
*BUS_DELIMITER []
*T_UNIT 1.0 NS
*C_UNIT 1.0 PF
*R_UNIT 1.0 KOHM
*L_UNIT 1.0 HENRY

*PORTS

CK I *L 0.000e+00 *S 0.000e+00 0.000e+00 
CLR I *L 0.000e+00 *S 0.000e+00 0.000e+00 
FM I *L 0.000e+00 *S 0.000e+00 0.000e+00 
GRN1 O *L 5.000e-02 *S 4.822e-01 3.416e-01 
GRN2 O *L 5.000e-02 *S 5.703e-01 3.967e-01 
RED1 O *L 5.000e-02 *S 4.822e-01 3.416e-01 
RED2 O *L 5.000e-02 *S 4.862e-01 2.796e-01 
TEST I *L 0.000e+00 *S 0.000e+00 0.000e+00 
YLW1 O *L 5.000e-02 *S 4.862e-01 2.796e-01 
YLW2 O *L 5.000e-02 *S 4.822e-01 3.416e-01 
test_si1 I *L 0.000e+00 *S 0.000e+00 0.000e+00 
test_si2 I *L 0.000e+00 *S 0.000e+00 0.000e+00 
test_si3 I *L 0.000e+00 *S 0.000e+00 0.000e+00 
test_si4 I *L 0.000e+00 *S 0.000e+00 0.000e+00 
test_so4 O *L 0.000e+00 *S 5.603e-01 3.905e-01 
test_si5 I *L 0.000e+00 *S 0.000e+00 0.000e+00 
test_so5 O *L 0.000e+00 *S 3.824e-01 2.792e-01 
test_si6 I *L 0.000e+00 *S 0.000e+00 0.000e+00 
test_so6 O *L 0.000e+00 *S 4.724e-01 3.355e-01 
test_si7 I *L 0.000e+00 *S 0.000e+00 0.000e+00 
test_so7 O *L 0.000e+00 *S 5.372e-01 3.179e-01 
test_si8 I *L 0.000e+00 *S 0.000e+00 0.000e+00 
test_so8 O *L 0.000e+00 *S 5.707e-01 3.970e-01 
test_se I *L 0.000e+00 *S 0.000e+00 0.000e+00 

*R_NET CLR 5.579e-02
*DRIVER CLR
*CELL NULL
*C2_R1_C1 2.789e-02 2.267e-05 2.789e-02 
*LOADS
*RC U117:B0 7.588e-08
*RC U115:B0 7.588e-08
*RC U101:A 7.345e-08
*RC U73:A 9.092e-08
*END

*R_NET FM 2.562e-02
*DRIVER FM
*CELL NULL
*C2_R1_C1 1.281e-02 1.133e-05 1.281e-02 
*LOADS
*RC U117:A1 7.426e-08
*RC U116:B 7.093e-08
*END

*R_NET TEST 2.562e-02
*DRIVER TEST
*CELL NULL
*C2_R1_C1 1.281e-02 1.133e-05 1.281e-02 
*LOADS
*RC U115:A1 7.426e-08
*RC U114:B 7.093e-08
*END

*R_NET GRN1 6.000e-02
*DRIVER DFF_7_I1_Q_reg:Q
*CELL SDFFQX1
*C2_R1_C1 3.000e-02 5.667e-06 3.000e-02 
*LOADS
*RC GRN1 3.400e-07
*END

*R_NET GRN2 7.125e-02
*DRIVER DFF_6_I1_Q_reg:Q
*CELL SDFFQX1
*C2_R1_C1 3.562e-02 1.133e-05 3.562e-02 
*LOADS
*RC DFF_8_I1_Q_reg:SI 6.373e-08
*RC GRN2 3.400e-07
*END

*R_NET RED1 6.000e-02
*DRIVER DFF_5_I1_Q_reg:Q
*CELL SDFFQX1
*C2_R1_C1 3.000e-02 5.667e-06 3.000e-02 
*LOADS
*RC RED1 3.400e-07
*END

*R_NET RED2 6.000e-02
*DRIVER U108:Y
*CELL INVX1
*C2_R1_C1 3.000e-02 5.667e-06 3.000e-02 
*LOADS
*RC RED2 3.400e-07
*END

*R_NET YLW1 6.000e-02
*DRIVER U107:Y
*CELL INVX1
*C2_R1_C1 3.000e-02 5.667e-06 3.000e-02 
*LOADS
*RC YLW1 3.400e-07
*END

*R_NET YLW2 6.000e-02
*DRIVER DFF_2_I1_Q_reg:Q
*CELL SDFFQX1
*C2_R1_C1 3.000e-02 5.667e-06 3.000e-02 
*LOADS
*RC YLW2 3.400e-07
*END

*R_NET TESTL 4.872e-02
*DRIVER DFF_0_I1_Q_reg:Q
*CELL SDFFQX1
*C2_R1_C1 2.436e-02 2.267e-05 2.436e-02 
*LOADS
*RC DFF_1_I1_Q_reg:SI 6.373e-08
*RC U115:A0 7.501e-08
*RC U114:A 7.299e-08
*RC U98:AN 6.437e-08
*END

*R_NET TESTLVIINLATCHVCDAD 1.096e-02
*DRIVER U115:Y
*CELL AOI211X1
*C2_R1_C1 5.481e-03 5.667e-06 5.481e-03 
*LOADS
*RC DFF_0_I1_Q_reg:D 6.212e-08
*END

*R_NET FML 7.251e-02
*DRIVER DFF_1_I1_Q_reg:Q
*CELL SDFFQX1
*C2_R1_C1 3.626e-02 3.400e-05 3.626e-02 
*LOADS
*RC U3:B0 6.448e-08
*RC DFF_2_I1_Q_reg:SI 6.373e-08
*RC U117:A0 7.501e-08
*RC U116:A 7.299e-08
*RC U110:B 6.524e-08
*RC U90:A 6.945e-08
*END

*R_NET FMLVIINLATCHVCDAD 1.096e-02
*DRIVER U117:Y
*CELL AOI211X1
*C2_R1_C1 5.481e-03 5.667e-06 5.481e-03 
*LOADS
*RC DFF_1_I1_Q_reg:D 6.212e-08
*END

*R_NET TCOMB_YA2 1.096e-02
*DRIVER U118:Y
*CELL NOR3X1
*C2_R1_C1 5.481e-03 5.667e-06 5.481e-03 
*LOADS
*RC DFF_2_I1_Q_reg:D 6.212e-08
*END

*R_NET OLATCHVUC_6 2.350e-02
*DRIVER DFF_3_I1_Q_reg:Q
*CELL SDFFQXL
*C2_R1_C1 1.175e-02 1.133e-05 1.175e-02 
*LOADS
*RC DFF_4_I1_Q_reg:SI 6.372e-08
*RC U107:A 6.945e-08
*END

*R_NET Y1C 1.163e-02
*DRIVER U113:Y
*CELL OAI21XL
*C2_R1_C1 5.813e-03 5.667e-06 5.813e-03 
*LOADS
*RC DFF_3_I1_Q_reg:D 6.588e-08
*END

*R_NET OLATCHVUC_5 2.350e-02
*DRIVER DFF_4_I1_Q_reg:Q
*CELL SDFFQXL
*C2_R1_C1 1.175e-02 1.133e-05 1.175e-02 
*LOADS
*RC DFF_5_I1_Q_reg:SI 6.373e-08
*RC U108:A 6.945e-08
*END

*R_NET R2C 1.163e-02
*DRIVER U78:Y
*CELL NAND2XL
*C2_R1_C1 5.813e-03 5.667e-06 5.813e-03 
*LOADS
*RC DFF_4_I1_Q_reg:D 6.588e-08
*END

*R_NET TCOMB_GA2 1.096e-02
*DRIVER U82:Y
*CELL AND3X1
*C2_R1_C1 5.481e-03 5.667e-06 5.481e-03 
*LOADS
*RC DFF_6_I1_Q_reg:D 6.212e-08
*END

*R_NET TCOMB_GA1 1.096e-02
*DRIVER U120:Y
*CELL AOI211X1
*C2_R1_C1 5.481e-03 5.667e-06 5.481e-03 
*LOADS
*RC DFF_7_I1_Q_reg:D 6.212e-08
*END

*R_NET OLATCH_FEL 7.431e-02
*DRIVER DFF_8_I1_Q_reg:Q
*CELL SDFFQX1
*C2_R1_C1 3.715e-02 3.400e-05 3.715e-02 
*LOADS
*RC DFF_7_I1_Q_reg:SI 6.373e-08
*RC U125:A1 6.632e-08
*RC U120:A0 7.501e-08
*RC U118:B 7.393e-08
*RC U109:A1 6.869e-08
*RC U94:B0 7.341e-08
*END

*R_NET C3_Q3 7.150e-02
*DRIVER DFF_9_I1_Q_reg:Q
*CELL SDFFQX1
*C2_R1_C1 3.575e-02 3.400e-05 3.575e-02 
*LOADS
*RC U3:A1 6.398e-08
*RC DFF_10_I1_Q_reg:SI 6.372e-08
*RC U146:A1N 6.553e-08
*RC U126:A 7.425e-08
*RC U111:A1 6.825e-08
*RC U89:A 6.945e-08
*END

*R_NET C3_Q3VD 1.096e-02
*DRIVER U146:Y
*CELL AOI2BB1X1
*C2_R1_C1 5.481e-03 5.667e-06 5.481e-03 
*LOADS
*RC DFF_9_I1_Q_reg:D 6.212e-08
*END

*R_NET C3_Q2 2.342e-02
*DRIVER DFF_10_I1_Q_reg:Q
*CELL SDFFQXL
*C2_R1_C1 1.171e-02 1.133e-05 1.171e-02 
*LOADS
*RC DFF_11_I1_Q_reg:SI 6.373e-08
*RC U87:A 6.899e-08
*END

*R_NET C3_Q2VD 1.163e-02
*DRIVER U79:Y
*CELL AOI211XL
*C2_R1_C1 5.813e-03 5.667e-06 5.813e-03 
*LOADS
*RC DFF_10_I1_Q_reg:D 6.588e-08
*END

*R_NET C3_Q1 6.997e-02
*DRIVER DFF_11_I1_Q_reg:Q
*CELL SDFFQX1
*C2_R1_C1 3.498e-02 3.400e-05 3.498e-02 
*LOADS
*RC test_so4 5.667e-08
*RC U143:A0 6.739e-08
*RC U121:A1 6.869e-08
*RC U92:A 7.082e-08
*RC U91:A 6.646e-08
*RC U74:A 6.646e-08
*END

*R_NET C3_Q1VD 1.096e-02
*DRIVER U123:Y
*CELL AOI211X1
*C2_R1_C1 5.481e-03 5.667e-06 5.481e-03 
*LOADS
*RC DFF_11_I1_Q_reg:D 6.212e-08
*END

*R_NET C3_Q0 6.034e-02
*DRIVER DFF_12_I1_Q_reg:Q
*CELL SDFFQX1
*C2_R1_C1 3.017e-02 2.833e-05 3.017e-02 
*LOADS
*RC DFF_13_I1_Q_reg:SI 6.372e-08
*RC U121:A2 6.790e-08
*RC U100:A 7.082e-08
*RC U93:A 7.472e-08
*RC U91:B 6.479e-08
*END

*R_NET C3_Q0VD 1.096e-02
*DRIVER U124:Y
*CELL AOI211X1
*C2_R1_C1 5.481e-03 5.667e-06 5.481e-03 
*LOADS
*RC DFF_12_I1_Q_reg:D 6.212e-08
*END

*R_NET UC_16 3.454e-02
*DRIVER DFF_13_I1_Q_reg:Q
*CELL SDFFQXL
*C2_R1_C1 1.727e-02 1.700e-05 1.727e-02 
*LOADS
*RC DFF_14_I1_Q_reg:SI 6.373e-08
*RC U145:A0N 6.544e-08
*RC U96:B0 6.657e-08
*END

*R_NET UC_16VD 1.163e-02
*DRIVER U145:Y
*CELL AOI2BB1X1
*C2_R1_C1 5.813e-03 5.667e-06 5.813e-03 
*LOADS
*RC DFF_13_I1_Q_reg:D 6.588e-08
*END

*R_NET UC_17 4.727e-02
*DRIVER DFF_14_I1_Q_reg:Q
*CELL SDFFQX1
*C2_R1_C1 2.363e-02 2.267e-05 2.363e-02 
*LOADS
*RC test_so5 5.667e-08
*RC U112:A 7.278e-08
*RC U96:A0 6.896e-08
*RC U88:A 6.945e-08
*END

*R_NET UC_17VD 1.096e-02
*DRIVER U138:Y
*CELL AOI211X1
*C2_R1_C1 5.481e-03 5.667e-06 5.481e-03 
*LOADS
*RC DFF_14_I1_Q_reg:D 6.212e-08
*END

*R_NET UC_18 4.648e-02
*DRIVER DFF_15_I1_Q_reg:Q
*CELL SDFFQX1
*C2_R1_C1 2.324e-02 2.267e-05 2.324e-02 
*LOADS
*RC DFF_16_I1_Q_reg:SI 6.373e-08
*RC U2:B 6.682e-08
*RC U139:A 6.496e-08
*RC U96:A2 6.790e-08
*END

*R_NET UC_18VD 1.096e-02
*DRIVER U140:Y
*CELL AOI211X1
*C2_R1_C1 5.481e-03 5.667e-06 5.481e-03 
*LOADS
*RC DFF_15_I1_Q_reg:D 6.212e-08
*END

*R_NET UC_19 5.875e-02
*DRIVER DFF_16_I1_Q_reg:Q
*CELL SDFFQX1
*C2_R1_C1 2.937e-02 2.833e-05 2.937e-02 
*LOADS
*RC U2:A 6.738e-08
*RC test_so6 5.667e-08
*RC U129:A0 6.739e-08
*RC U128:A 7.278e-08
*RC U96:A1 6.869e-08
*END

*R_NET UC_19VD 1.096e-02
*DRIVER U130:Y
*CELL NOR2X1
*C2_R1_C1 5.481e-03 5.667e-06 5.481e-03 
*LOADS
*RC DFF_16_I1_Q_reg:D 6.212e-08
*END

*R_NET UC_8 3.560e-02
*DRIVER DFF_17_I1_Q_reg:Q
*CELL SDFFQXL
*C2_R1_C1 1.780e-02 1.700e-05 1.780e-02 
*LOADS
*RC U1:B0 7.257e-08
*RC DFF_18_I1_Q_reg:SI 6.372e-08
*RC U144:A0N 6.544e-08
*END

*R_NET UC_8VD 1.163e-02
*DRIVER U144:Y
*CELL AOI2BB1X1
*C2_R1_C1 5.813e-03 5.667e-06 5.813e-03 
*LOADS
*RC DFF_17_I1_Q_reg:D 6.588e-08
*END

*R_NET UC_9 3.579e-02
*DRIVER DFF_18_I1_Q_reg:Q
*CELL SDFFQXL
*C2_R1_C1 1.790e-02 1.700e-05 1.790e-02 
*LOADS
*RC U1:A0 7.672e-08
*RC test_so7 5.667e-08
*RC U86:A 6.945e-08
*END

*R_NET UC_9VD 1.163e-02
*DRIVER U135:Y
*CELL AOI211X1
*C2_R1_C1 5.813e-03 5.667e-06 5.813e-03 
*LOADS
*RC DFF_18_I1_Q_reg:D 6.588e-08
*END

*R_NET UC_10 6.004e-02
*DRIVER DFF_19_I1_Q_reg:Q
*CELL SDFFQX1
*C2_R1_C1 3.002e-02 2.833e-05 3.002e-02 
*LOADS
*RC DFF_20_I1_Q_reg:SI 6.373e-08
*RC U1:A1 7.622e-08
*RC U6:A1 6.737e-08
*RC U5:A 6.646e-08
*RC U4:A 6.644e-08
*END

*R_NET UC_10VD 1.096e-02
*DRIVER U6:Y
*CELL AOI211XL
*C2_R1_C1 5.481e-03 5.667e-06 5.481e-03 
*LOADS
*RC DFF_19_I1_Q_reg:D 6.212e-08
*END

*R_NET UC_11 7.130e-02
*DRIVER DFF_20_I1_Q_reg:Q
*CELL SDFFQX1
*C2_R1_C1 3.565e-02 3.400e-05 3.565e-02 
*LOADS
*RC U1:A2 7.566e-08
*RC U6:A0 6.866e-08
*RC U5:B 6.479e-08
*RC U4:B 6.524e-08
*RC test_so8 5.667e-08
*RC U132:A 7.299e-08
*END

*R_NET UC_11VD 1.096e-02
*DRIVER U132:Y
*CELL NOR2X1
*C2_R1_C1 5.481e-03 5.667e-06 5.481e-03 
*LOADS
*RC DFF_20_I1_Q_reg:D 6.212e-08
*END

*R_NET n50 2.355e-02
*DRIVER U95:Y
*CELL OAI31XL
*C2_R1_C1 1.177e-02 1.133e-05 1.177e-02 
*LOADS
*RC DFF_8_I1_Q_reg:D 6.212e-08
*RC U112:B 7.131e-08
*END

*R_NET n51 1.096e-02
*DRIVER U109:Y
*CELL OAI31XL
*C2_R1_C1 5.481e-03 5.667e-06 5.481e-03 
*LOADS
*RC DFF_5_I1_Q_reg:D 6.212e-08
*END

*R_NET n52 2.494e-02
*DRIVER U90:Y
*CELL INVX1
*C2_R1_C1 1.247e-02 1.133e-05 1.247e-02 
*LOADS
*RC U95:A2 6.790e-08
*RC U93:D 7.343e-08
*END

*R_NET n53 2.515e-02
*DRIVER U85:Y
*CELL INVX1
*C2_R1_C1 1.257e-02 1.133e-05 1.257e-02 
*LOADS
*RC U95:A1 6.869e-08
*RC U94:A0 7.380e-08
*END

*R_NET n54 1.136e-02
*DRIVER U96:Y
*CELL OAI31XL
*C2_R1_C1 5.680e-03 5.667e-06 5.680e-03 
*LOADS
*RC U99:AN 6.437e-08
*END

*R_NET n55 1.212e-02
*DRIVER U102:Y
*CELL NAND2BX1
*C2_R1_C1 6.059e-03 5.667e-06 6.059e-03 
*LOADS
*RC U79:A0 6.866e-08
*END

*R_NET n56 1.173e-02
*DRIVER U74:Y
*CELL NOR2XL
*C2_R1_C1 5.864e-03 5.667e-06 5.864e-03 
*LOADS
*RC U83:A 6.646e-08
*END

*R_NET n57 1.198e-02
*DRIVER U83:Y
*CELL NOR2XL
*C2_R1_C1 5.991e-03 5.667e-06 5.991e-03 
*LOADS
*RC U109:A2 6.790e-08
*END

*R_NET n58 2.321e-02
*DRIVER U94:Y
*CELL OAI211X1
*C2_R1_C1 1.161e-02 1.133e-05 1.161e-02 
*LOADS
*RC U95:B0 6.657e-08
*RC U75:A 6.496e-08
*END

*R_NET n59 2.410e-02
*DRIVER U76:Y
*CELL NAND2XL
*C2_R1_C1 1.205e-02 1.133e-05 1.205e-02 
*LOADS
*RC U111:C0 6.763e-08
*RC U95:A0 6.896e-08
*END

*R_NET n60 4.903e-02
*DRIVER U89:Y
*CELL INVX1
*C2_R1_C1 2.452e-02 2.267e-05 2.452e-02 
*LOADS
*RC U111:B1 6.757e-08
*RC U104:B 7.093e-08
*RC U93:C 7.455e-08
*RC U83:B 6.479e-08
*END

*R_NET n61 1.207e-02
*DRIVER U110:Y
*CELL NAND2XL
*C2_R1_C1 6.036e-03 5.667e-06 6.036e-03 
*LOADS
*RC U111:B0 6.840e-08
*END

*R_NET n62 1.170e-02
*DRIVER U111:Y
*CELL AOI221XL
*C2_R1_C1 5.852e-03 5.667e-06 5.852e-03 
*LOADS
*RC U113:A1 6.632e-08
*END

*R_NET n63 1.189e-02
*DRIVER U75:Y
*CELL INVXL
*C2_R1_C1 5.947e-03 5.667e-06 5.947e-03 
*LOADS
*RC U113:A0 6.739e-08
*END

*R_NET n64 1.307e-02
*DRIVER U114:Y
*CELL NOR2X1
*C2_R1_C1 6.533e-03 5.667e-06 6.533e-03 
*LOADS
*RC U115:C0 7.404e-08
*END

*R_NET n65 1.307e-02
*DRIVER U116:Y
*CELL NOR2X1
*C2_R1_C1 6.533e-03 5.667e-06 6.533e-03 
*LOADS
*RC U117:C0 7.404e-08
*END

*R_NET n66 2.502e-02
*DRIVER U101:Y
*CELL NOR3X1
*C2_R1_C1 1.251e-02 1.133e-05 1.251e-02 
*LOADS
*RC U102:B 7.235e-08
*RC U84:A 6.945e-08
*END

*R_NET n67 2.304e-02
*DRIVER U91:Y
*CELL NOR2XL
*C2_R1_C1 1.152e-02 1.133e-05 1.152e-02 
*LOADS
*RC U3:A0 6.415e-08
*RC U76:A 6.644e-08
*END

*R_NET n68 2.495e-02
*DRIVER U103:Y
*CELL NAND2X1
*C2_R1_C1 1.248e-02 1.133e-05 1.248e-02 
*LOADS
*RC U120:C0 7.404e-08
*RC U79:A1 6.737e-08
*END

*R_NET n69 1.339e-02
*DRIVER U3:Y
*CELL OA21XL
*C2_R1_C1 6.696e-03 5.667e-06 6.696e-03 
*LOADS
*RC U120:B0 7.588e-08
*END

*R_NET n70 2.621e-02
*DRIVER U93:Y
*CELL NAND4X1
*C2_R1_C1 1.310e-02 1.133e-05 1.310e-02 
*LOADS
*RC U120:A1 7.426e-08
*RC U94:A1 7.426e-08
*END

*R_NET n71 2.374e-02
*DRIVER U104:Y
*CELL NOR2X1
*C2_R1_C1 1.187e-02 1.133e-05 1.187e-02 
*LOADS
*RC U121:B0 6.657e-08
*RC U79:B0 6.798e-08
*END

*R_NET n72 1.258e-02
*DRIVER U121:Y
*CELL OAI31XL
*C2_R1_C1 6.292e-03 5.667e-06 6.292e-03 
*LOADS
*RC U122:B 7.131e-08
*END

*R_NET n73 2.472e-02
*DRIVER U106:Y
*CELL NOR2X1
*C2_R1_C1 1.236e-02 1.133e-05 1.236e-02 
*LOADS
*RC U123:B0 7.588e-08
*RC U80:A 6.419e-08
*END

*R_NET n74 2.562e-02
*DRIVER U81:Y
*CELL INVX1
*C2_R1_C1 1.281e-02 1.133e-05 1.281e-02 
*LOADS
*RC U123:A1 7.426e-08
*RC U106:B 7.093e-08
*END

*R_NET n75 5.229e-02
*DRIVER U92:Y
*CELL CLKINVX1
*C2_R1_C1 2.615e-02 2.267e-05 2.615e-02 
*LOADS
*RC U123:A0 7.501e-08
*RC U106:A 7.299e-08
*RC U101:C 7.378e-08
*RC U93:B 7.453e-08
*END

*R_NET n76 2.565e-02
*DRIVER U105:Y
*CELL NOR2X1
*C2_R1_C1 1.282e-02 1.133e-05 1.282e-02 
*LOADS
*RC U124:B0 7.588e-08
*RC U81:A 6.945e-08
*END

*R_NET n77 1.096e-01
*DRIVER U87:Y
*CELL BUFX2
*C2_R1_C1 5.480e-02 5.100e-05 5.480e-02 
*LOADS
*RC U125:A0 6.739e-08
*RC U121:A0 6.896e-08
*RC U118:A 7.345e-08
*RC U111:A0 6.819e-08
*RC U110:A 6.644e-08
*RC U109:A0 6.896e-08
*RC U103:A 7.278e-08
*RC U85:A 6.945e-08
*RC U80:B 6.541e-08
*END

*R_NET n78 6.354e-02
*DRIVER U100:Y
*CELL CLKINVX1
*C2_R1_C1 3.177e-02 2.833e-05 3.177e-02 
*LOADS
*RC U126:B 7.332e-08
*RC U124:A0 7.501e-08
*RC U105:A 7.299e-08
*RC U101:B 7.393e-08
*RC U74:B 6.479e-08
*END

*R_NET n79 2.450e-02
*DRIVER U84:Y
*CELL INVX1
*C2_R1_C1 1.225e-02 1.133e-05 1.225e-02 
*LOADS
*RC U118:C 7.378e-08
*RC U82:B 6.503e-08
*END

*R_NET n80 6.271e-02
*DRIVER U99:Y
*CELL NAND2BX1
*C2_R1_C1 3.135e-02 2.833e-05 3.135e-02 
*LOADS
*RC U127:A 7.278e-08
*RC U124:A1 7.426e-08
*RC U105:B 7.093e-08
*RC U104:A 7.299e-08
*RC U102:AN 6.437e-08
*END

*R_NET n81 1.252e-02
*DRIVER U129:Y
*CELL OAI21XL
*C2_R1_C1 6.259e-03 5.667e-06 6.259e-03 
*LOADS
*RC U130:B 7.093e-08
*END

*R_NET n82 1.111e-01
*DRIVER U73:Y
*CELL INVX3
*C2_R1_C1 5.555e-02 5.100e-05 5.555e-02 
*LOADS
*RC U131:B 7.131e-08
*RC U127:B 7.131e-08
*RC U126:C 7.210e-08
*RC U125:B0 6.584e-08
*RC U122:A 7.278e-08
*RC U109:B0 6.657e-08
*RC U103:B 7.131e-08
*RC U94:C0 7.313e-08
*RC U76:B 6.524e-08
*END

*R_NET n83 2.561e-02
*DRIVER U1:Y
*CELL OAI31X1
*C2_R1_C1 1.281e-02 1.133e-05 1.281e-02 
*LOADS
*RC U131:A 7.278e-08
*RC U98:B 7.235e-08
*END

*R_NET n84 2.562e-02
*DRIVER U4:Y
*CELL NAND2XL
*C2_R1_C1 1.281e-02 1.133e-05 1.281e-02 
*LOADS
*RC U135:A1 7.426e-08
*RC U134:B 7.093e-08
*END

*R_NET n85 2.612e-02
*DRIVER U86:Y
*CELL INVX1
*C2_R1_C1 1.306e-02 1.133e-05 1.306e-02 
*LOADS
*RC U135:A0 7.501e-08
*RC U134:A 7.299e-08
*END

*R_NET n86 4.869e-02
*DRIVER U98:Y
*CELL NAND2BX1
*C2_R1_C1 2.434e-02 2.267e-05 2.434e-02 
*LOADS
*RC U2:C 6.592e-08
*RC U129:A1 6.632e-08
*RC U128:B 7.131e-08
*RC U99:B 7.235e-08
*END

*R_NET n87 2.612e-02
*DRIVER U88:Y
*CELL INVX1
*C2_R1_C1 1.306e-02 1.133e-05 1.306e-02 
*LOADS
*RC U138:A0 7.501e-08
*RC U137:A 7.299e-08
*END

*R_NET n88 3.708e-02
*DRIVER U2:Y
*CELL NAND3XL
*C2_R1_C1 1.854e-02 1.700e-05 1.854e-02 
*LOADS
*RC U138:A1 7.426e-08
*RC U137:B 7.093e-08
*RC U77:A 6.496e-08
*END

*R_NET n89 1.339e-02
*DRIVER U77:Y
*CELL INVXL
*C2_R1_C1 6.696e-03 5.667e-06 6.696e-03 
*LOADS
*RC U140:B0 7.588e-08
*END

*R_NET n90 2.472e-02
*DRIVER U128:Y
*CELL NAND2X1
*C2_R1_C1 1.236e-02 1.133e-05 1.236e-02 
*LOADS
*RC U140:A1 7.426e-08
*RC U129:B0 6.584e-08
*END

*R_NET n91 1.324e-02
*DRIVER U139:Y
*CELL INVXL
*C2_R1_C1 6.619e-03 5.667e-06 6.619e-03 
*LOADS
*RC U140:A0 7.501e-08
*END

*R_NET n92 1.200e-02
*DRIVER U5:Y
*CELL NOR2XL
*C2_R1_C1 5.998e-03 5.667e-06 5.998e-03 
*LOADS
*RC U6:B0 6.798e-08
*END

*R_NET n93 2.297e-02
*DRIVER U125:Y
*CELL OAI21XL
*C2_R1_C1 1.149e-02 1.133e-05 1.149e-02 
*LOADS
*RC U143:B0 6.584e-08
*RC U82:A 6.435e-08
*END

*R_NET n94 2.326e-02
*DRIVER U126:Y
*CELL NAND3X1
*C2_R1_C1 1.163e-02 1.133e-05 1.163e-02 
*LOADS
*RC U143:A1 6.632e-08
*RC U82:C 6.551e-08
*END

*R_NET n95 1.151e-02
*DRIVER U143:Y
*CELL OAI21XL
*C2_R1_C1 5.757e-03 5.667e-06 5.757e-03 
*LOADS
*RC U78:B 6.524e-08
*END

*R_NET n96 2.334e-02
*DRIVER U112:Y
*CELL NAND2X1
*C2_R1_C1 1.167e-02 1.133e-05 1.167e-02 
*LOADS
*RC U113:B0 6.584e-08
*RC U78:A 6.644e-08
*END

*R_NET n97 5.030e-02
*DRIVER U131:Y
*CELL NAND2X1
*C2_R1_C1 2.515e-02 2.267e-05 2.515e-02 
*LOADS
*RC U6:C0 6.764e-08
*RC U144:B0 7.241e-08
*RC U135:C0 7.404e-08
*RC U132:B 7.093e-08
*END

*R_NET n98 2.496e-02
*DRIVER U134:Y
*CELL NOR2X1
*C2_R1_C1 1.248e-02 1.133e-05 1.248e-02 
*LOADS
*RC U144:A1N 6.553e-08
*RC U135:B0 7.588e-08
*END

*R_NET n99 5.179e-02
*DRIVER U127:Y
*CELL NAND2X1
*C2_R1_C1 2.589e-02 2.267e-05 2.589e-02 
*LOADS
*RC U145:B0 7.241e-08
*RC U140:C0 7.404e-08
*RC U138:C0 7.404e-08
*RC U130:A 7.299e-08
*END

*R_NET n100 2.496e-02
*DRIVER U137:Y
*CELL NOR2X1
*C2_R1_C1 1.248e-02 1.133e-05 1.248e-02 
*LOADS
*RC U145:A1N 6.553e-08
*RC U138:B0 7.588e-08
*END

*R_NET n101 3.891e-02
*DRIVER U122:Y
*CELL NAND2X1
*C2_R1_C1 1.945e-02 1.700e-05 1.945e-02 
*LOADS
*RC U146:B0 7.241e-08
*RC U124:C0 7.404e-08
*RC U123:C0 7.404e-08
*END

*R_NET n102 2.348e-02
*DRIVER U80:Y
*CELL AND2X1
*C2_R1_C1 1.174e-02 1.133e-05 1.174e-02 
*LOADS
*RC U146:A0N 6.544e-08
*RC U79:C0 6.764e-08
*END

*R_NET test_se 2.651e-01
*DRIVER test_se
*CELL NULL
*C2_R1_C1 1.326e-01 1.190e-04 1.326e-01 
*LOADS
*RC DFF_15_I1_Q_reg:SE 7.090e-08
*RC DFF_16_I1_Q_reg:SE 7.090e-08
*RC DFF_5_I1_Q_reg:SE 7.090e-08
*RC DFF_14_I1_Q_reg:SE 7.090e-08
*RC DFF_0_I1_Q_reg:SE 7.090e-08
*RC DFF_1_I1_Q_reg:SE 7.090e-08
*RC DFF_6_I1_Q_reg:SE 7.090e-08
*RC DFF_8_I1_Q_reg:SE 7.090e-08
*RC DFF_19_I1_Q_reg:SE 7.090e-08
*RC DFF_20_I1_Q_reg:SE 7.090e-08
*RC DFF_12_I1_Q_reg:SE 7.090e-08
*RC DFF_11_I1_Q_reg:SE 7.090e-08
*RC DFF_9_I1_Q_reg:SE 7.090e-08
*RC DFF_2_I1_Q_reg:SE 7.090e-08
*RC DFF_7_I1_Q_reg:SE 7.090e-08
*RC DFF_17_I1_Q_reg:SE 7.315e-08
*RC DFF_18_I1_Q_reg:SE 7.315e-08
*RC DFF_13_I1_Q_reg:SE 7.315e-08
*RC DFF_10_I1_Q_reg:SE 7.315e-08
*RC DFF_3_I1_Q_reg:SE 7.315e-08
*RC DFF_4_I1_Q_reg:SE 7.315e-08
*END

*R_NET test_si8 1.125e-02
*DRIVER test_si8
*CELL NULL
*C2_R1_C1 5.623e-03 5.667e-06 5.623e-03 
*LOADS
*RC DFF_19_I1_Q_reg:SI 6.373e-08
*END

*R_NET test_si7 1.124e-02
*DRIVER test_si7
*CELL NULL
*C2_R1_C1 5.622e-03 5.667e-06 5.622e-03 
*LOADS
*RC DFF_17_I1_Q_reg:SI 6.372e-08
*END

*R_NET test_si6 1.125e-02
*DRIVER test_si6
*CELL NULL
*C2_R1_C1 5.623e-03 5.667e-06 5.623e-03 
*LOADS
*RC DFF_15_I1_Q_reg:SI 6.373e-08
*END

*R_NET test_si5 1.125e-02
*DRIVER test_si5
*CELL NULL
*C2_R1_C1 5.623e-03 5.667e-06 5.623e-03 
*LOADS
*RC DFF_12_I1_Q_reg:SI 6.373e-08
*END

*R_NET test_si4 1.125e-02
*DRIVER test_si4
*CELL NULL
*C2_R1_C1 5.623e-03 5.667e-06 5.623e-03 
*LOADS
*RC DFF_9_I1_Q_reg:SI 6.373e-08
*END

*R_NET test_si3 1.125e-02
*DRIVER test_si3
*CELL NULL
*C2_R1_C1 5.623e-03 5.667e-06 5.623e-03 
*LOADS
*RC DFF_6_I1_Q_reg:SI 6.373e-08
*END

*R_NET test_si2 1.124e-02
*DRIVER test_si2
*CELL NULL
*C2_R1_C1 5.622e-03 5.667e-06 5.622e-03 
*LOADS
*RC DFF_3_I1_Q_reg:SI 6.372e-08
*END

*R_NET test_si1 1.125e-02
*DRIVER test_si1
*CELL NULL
*C2_R1_C1 5.623e-03 5.667e-06 5.623e-03 
*LOADS
*RC DFF_0_I1_Q_reg:SI 6.373e-08
*END
