*SPEF "IEEE 1481-1999"
*DESIGN "s38584"
*DATE "Thu Nov  9 11:42:56 2023"
*VENDOR "SYNOPSYS INC"
*PROGRAM "Synopsys Design Compiler cmos"
*VERSION "U-2022.12"
*DESIGN_FLOW "SYNTHESIS"
*DIVIDER /
*DELIMITER :
*BUS_DELIMITER []
*T_UNIT 1.0 NS
*C_UNIT 1.0 PF
*R_UNIT 1.0 KOHM
*L_UNIT 1.0 HENRY

*PORTS

CK I *L 0.000e+00 *S 0.000e+00 0.000e+00 
g100 I *L 0.000e+00 *S 0.000e+00 0.000e+00 
g10122 O *L 5.000e-02 *S 1.707e-01 1.406e-01 
g10306 O *L 5.000e-02 *S 1.696e-01 1.399e-01 
g10500 O *L 5.000e-02 *S 3.268e-01 2.447e-01 
g10527 O *L 5.000e-02 *S 3.269e-01 2.448e-01 
g113 I *L 0.000e+00 *S 0.000e+00 0.000e+00 
g11349 O *L 5.000e-02 *S 5.210e-01 3.726e-01 
g11388 O *L 5.000e-02 *S 2.668e-01 2.062e-01 
g114 I *L 0.000e+00 *S 0.000e+00 0.000e+00 
g11418 O *L 5.000e-02 *S 5.207e-01 3.724e-01 
g11447 O *L 5.000e-02 *S 1.706e-01 1.406e-01 
g115 I *L 0.000e+00 *S 0.000e+00 0.000e+00 
g116 I *L 0.000e+00 *S 0.000e+00 0.000e+00 
g11678 O *L 5.000e-02 *S 3.291e-01 2.462e-01 
g11770 O *L 5.000e-02 *S 3.282e-01 2.457e-01 
g120 I *L 0.000e+00 *S 0.000e+00 0.000e+00 
g12184 O *L 5.000e-02 *S 1.681e-01 1.388e-01 
g12238 O *L 5.000e-02 *S 2.465e-01 1.923e-01 
g12300 O *L 5.000e-02 *S 5.211e-01 3.727e-01 
g12350 O *L 5.000e-02 *S 2.673e-01 2.065e-01 
g12368 O *L 5.000e-02 *S 1.690e-01 1.394e-01 
g124 I *L 0.000e+00 *S 0.000e+00 0.000e+00 
g12422 O *L 5.000e-02 *S 2.680e-01 2.070e-01 
g12470 O *L 5.000e-02 *S 5.228e-01 3.738e-01 
g125 I *L 0.000e+00 *S 0.000e+00 0.000e+00 
g126 I *L 0.000e+00 *S 0.000e+00 0.000e+00 
g127 I *L 0.000e+00 *S 0.000e+00 0.000e+00 
g12832 O *L 5.000e-02 *S 5.703e-01 3.967e-01 
g12833 O *L 5.000e-02 *S 4.862e-01 2.796e-01 
g12919 O *L 5.000e-02 *S 2.874e-01 2.202e-01 
g12923 O *L 5.000e-02 *S 2.935e-01 2.243e-01 
g13039 O *L 5.000e-02 *S 4.053e-01 2.964e-01 
g13049 O *L 5.000e-02 *S 2.090e-01 1.667e-01 
g13068 O *L 5.000e-02 *S 2.097e-01 1.672e-01 
g13085 O *L 5.000e-02 *S 2.097e-01 1.672e-01 
g13099 O *L 5.000e-02 *S 2.089e-01 1.667e-01 
g13259 O *L 5.000e-02 *S 2.522e-01 1.962e-01 
g13272 O *L 5.000e-02 *S 4.901e-01 3.523e-01 
g134 I *L 0.000e+00 *S 0.000e+00 0.000e+00 
g135 I *L 0.000e+00 *S 0.000e+00 0.000e+00 
g13865 O *L 5.000e-02 *S 3.260e-01 2.442e-01 
g13881 O *L 5.000e-02 *S 3.260e-01 2.442e-01 
g13895 O *L 5.000e-02 *S 4.457e-01 3.230e-01 
g13906 O *L 5.000e-02 *S 7.498e-01 5.091e-01 
g13926 O *L 5.000e-02 *S 4.853e-01 3.491e-01 
g13966 O *L 5.000e-02 *S 4.810e-01 3.463e-01 
g14096 O *L 5.000e-02 *S 3.248e-01 2.434e-01 
g14125 O *L 5.000e-02 *S 3.248e-01 2.434e-01 
g14147 O *L 5.000e-02 *S 3.242e-01 2.430e-01 
g14167 O *L 5.000e-02 *S 7.508e-01 5.097e-01 
g14189 O *L 5.000e-02 *S 1.687e-01 1.393e-01 
g14201 O *L 5.000e-02 *S 3.248e-01 2.434e-01 
g14217 O *L 5.000e-02 *S 3.248e-01 2.434e-01 
g14421 O *L 5.000e-02 *S 4.066e-01 2.973e-01 
g14451 O *L 5.000e-02 *S 4.066e-01 2.973e-01 
g14518 O *L 5.000e-02 *S 2.090e-01 1.667e-01 
g14597 O *L 5.000e-02 *S 3.669e-01 2.712e-01 
g14635 O *L 5.000e-02 *S 1.693e-01 1.397e-01 
g14662 O *L 5.000e-02 *S 4.829e-01 3.476e-01 
g14673 O *L 5.000e-02 *S 3.277e-01 2.453e-01 
g14694 O *L 5.000e-02 *S 4.828e-01 3.475e-01 
g14705 O *L 5.000e-02 *S 3.258e-01 2.441e-01 
g14738 O *L 5.000e-02 *S 4.836e-01 3.480e-01 
g14749 O *L 5.000e-02 *S 3.277e-01 2.453e-01 
g14779 O *L 5.000e-02 *S 2.472e-01 1.928e-01 
g14828 O *L 5.000e-02 *S 2.472e-01 1.928e-01 
g16603 O *L 5.000e-02 *S 2.287e-01 1.802e-01 
g16624 O *L 5.000e-02 *S 3.674e-01 2.715e-01 
g16627 O *L 5.000e-02 *S 2.286e-01 1.801e-01 
g16656 O *L 5.000e-02 *S 2.307e-01 1.815e-01 
g16659 O *L 5.000e-02 *S 2.285e-01 1.800e-01 
g16686 O *L 5.000e-02 *S 3.731e-01 2.752e-01 
g16693 O *L 5.000e-02 *S 4.475e-01 3.242e-01 
g16718 O *L 5.000e-02 *S 2.104e-01 1.677e-01 
g16722 O *L 5.000e-02 *S 3.668e-01 2.711e-01 
g16744 O *L 5.000e-02 *S 2.092e-01 1.669e-01 
g16748 O *L 5.000e-02 *S 3.671e-01 2.713e-01 
g16775 O *L 5.000e-02 *S 4.078e-01 2.981e-01 
g16874 O *L 5.000e-02 *S 1.890e-01 1.531e-01 
g16924 O *L 5.000e-02 *S 1.891e-01 1.532e-01 
g16955 O *L 5.000e-02 *S 3.645e-01 2.695e-01 
g17291 O *L 5.000e-02 *S 3.301e-01 2.469e-01 
g17316 O *L 5.000e-02 *S 3.635e-01 2.689e-01 
g17320 O *L 5.000e-02 *S 1.897e-01 1.536e-01 
g17400 O *L 5.000e-02 *S 3.664e-01 2.708e-01 
g17404 O *L 5.000e-02 *S 1.888e-01 1.529e-01 
g17423 O *L 5.000e-02 *S 3.672e-01 2.713e-01 
g17519 O *L 5.000e-02 *S 2.076e-01 1.658e-01 
g17577 O *L 5.000e-02 *S 4.485e-01 3.249e-01 
g17580 O *L 5.000e-02 *S 4.459e-01 3.232e-01 
g17604 O *L 5.000e-02 *S 2.303e-01 1.813e-01 
g17607 O *L 5.000e-02 *S 2.287e-01 1.802e-01 
g17639 O *L 5.000e-02 *S 1.899e-01 1.537e-01 
g17646 O *L 5.000e-02 *S 4.044e-01 2.958e-01 
g17649 O *L 5.000e-02 *S 4.441e-01 3.220e-01 
g17674 O *L 5.000e-02 *S 2.287e-01 1.802e-01 
g17678 O *L 5.000e-02 *S 3.668e-01 2.711e-01 
g17685 O *L 5.000e-02 *S 4.082e-01 2.983e-01 
g17688 O *L 5.000e-02 *S 2.090e-01 1.667e-01 
g17711 O *L 5.000e-02 *S 2.083e-01 1.663e-01 
g17715 O *L 5.000e-02 *S 1.902e-01 1.539e-01 
g17722 O *L 5.000e-02 *S 4.490e-01 3.252e-01 
g17739 O *L 5.000e-02 *S 4.053e-01 2.964e-01 
g17743 O *L 5.000e-02 *S 3.703e-01 2.733e-01 
g17760 O *L 5.000e-02 *S 4.061e-01 2.969e-01 
g17764 O *L 5.000e-02 *S 1.887e-01 1.529e-01 
g17778 O *L 5.000e-02 *S 4.053e-01 2.964e-01 
g17787 O *L 5.000e-02 *S 1.878e-01 1.523e-01 
g17813 O *L 5.000e-02 *S 3.668e-01 2.710e-01 
g17819 O *L 5.000e-02 *S 1.889e-01 1.530e-01 
g17845 O *L 5.000e-02 *S 1.890e-01 1.531e-01 
g17871 O *L 5.000e-02 *S 3.650e-01 2.699e-01 
g18092 O *L 5.000e-02 *S 2.328e-01 1.531e-01 
g18094 O *L 5.000e-02 *S 2.328e-01 1.531e-01 
g18095 O *L 5.000e-02 *S 2.328e-01 1.531e-01 
g18096 O *L 5.000e-02 *S 2.328e-01 1.531e-01 
g18097 O *L 5.000e-02 *S 2.328e-01 1.531e-01 
g18098 O *L 5.000e-02 *S 2.328e-01 1.531e-01 
g18099 O *L 5.000e-02 *S 2.328e-01 1.531e-01 
g18100 O *L 5.000e-02 *S 2.328e-01 1.531e-01 
g18101 O *L 5.000e-02 *S 2.328e-01 1.531e-01 
g18881 O *L 5.000e-02 *S 3.666e-01 2.710e-01 
g19334 O *L 5.000e-02 *S 4.061e-01 2.970e-01 
g19357 O *L 5.000e-02 *S 4.044e-01 2.958e-01 
g20049 O *L 5.000e-02 *S 4.910e-01 3.529e-01 
g20557 O *L 5.000e-02 *S 3.278e-01 2.453e-01 
g20652 O *L 5.000e-02 *S 3.654e-01 2.702e-01 
g20654 O *L 5.000e-02 *S 2.496e-01 1.944e-01 
g20763 O *L 5.000e-02 *S 4.084e-01 2.985e-01 
g20899 O *L 5.000e-02 *S 2.127e-01 1.693e-01 
g20901 O *L 5.000e-02 *S 1.705e-01 1.405e-01 
g21176 O *L 5.000e-02 *S 2.493e-01 1.942e-01 
g21245 O *L 5.000e-02 *S 1.900e-01 1.538e-01 
g21270 O *L 5.000e-02 *S 2.306e-01 1.815e-01 
g21292 O *L 5.000e-02 *S 3.379e-01 2.520e-01 
g21698 O *L 5.000e-02 *S 2.328e-01 1.531e-01 
g21727 O *L 5.000e-02 *S 6.807e-01 2.793e-01 
g23002 O *L 5.000e-02 *S 3.380e-01 2.370e-01 
g23190 O *L 5.000e-02 *S 4.862e-01 2.796e-01 
g23612 O *L 5.000e-02 *S 3.760e-01 2.618e-01 
g23652 O *L 5.000e-02 *S 4.556e-01 4.916e-01 
g23683 O *L 5.000e-02 *S 4.180e-01 3.048e-01 
g23759 O *L 5.000e-02 *S 4.556e-01 4.916e-01 
g24151 O *L 5.000e-02 *S 4.862e-01 2.796e-01 
g24161 O *L 5.000e-02 *S 2.328e-01 1.531e-01 
g24162 O *L 5.000e-02 *S 0.000e+00 0.000e+00 
g24163 O *L 5.000e-02 *S 2.328e-01 1.531e-01 
g24164 O *L 5.000e-02 *S 2.328e-01 1.531e-01 
g24165 O *L 5.000e-02 *S 2.328e-01 1.531e-01 
g24166 O *L 5.000e-02 *S 2.965e-02 2.561e-02 
g24167 O *L 5.000e-02 *S 2.843e-02 2.459e-02 
g24168 O *L 5.000e-02 *S 2.328e-01 1.531e-01 
g24169 O *L 5.000e-02 *S 2.328e-01 1.531e-01 
g24170 O *L 5.000e-02 *S 2.328e-01 1.531e-01 
g24171 O *L 5.000e-02 *S 2.328e-01 1.531e-01 
g24172 O *L 5.000e-02 *S 2.328e-01 1.531e-01 
g24173 O *L 5.000e-02 *S 2.328e-01 1.531e-01 
g24174 O *L 5.000e-02 *S 2.328e-01 1.531e-01 
g24175 O *L 5.000e-02 *S 2.328e-01 1.531e-01 
g24176 O *L 5.000e-02 *S 2.328e-01 1.531e-01 
g24177 O *L 5.000e-02 *S 2.328e-01 1.531e-01 
g24178 O *L 5.000e-02 *S 2.328e-01 1.531e-01 
g24179 O *L 5.000e-02 *S 2.328e-01 1.531e-01 
g24180 O *L 5.000e-02 *S 2.328e-01 1.531e-01 
g24181 O *L 5.000e-02 *S 2.328e-01 1.531e-01 
g24182 O *L 5.000e-02 *S 2.328e-01 1.531e-01 
g24183 O *L 5.000e-02 *S 2.328e-01 1.531e-01 
g24184 O *L 5.000e-02 *S 2.328e-01 1.531e-01 
g24185 O *L 5.000e-02 *S 2.328e-01 1.531e-01 
g25114 O *L 5.000e-02 *S 4.245e-01 2.936e-01 
g25167 O *L 5.000e-02 *S 3.955e-01 4.265e-01 
g25219 O *L 5.000e-02 *S 4.553e-01 3.294e-01 
g25259 O *L 5.000e-02 *S 6.144e-01 2.598e-01 
g25582 O *L 5.000e-02 *S 4.862e-01 2.796e-01 
g25583 O *L 5.000e-02 *S 4.862e-01 2.796e-01 
g25584 O *L 5.000e-02 *S 4.862e-01 2.796e-01 
g25585 O *L 5.000e-02 *S 4.862e-01 2.796e-01 
g25586 O *L 5.000e-02 *S 4.862e-01 2.796e-01 
g25587 O *L 5.000e-02 *S 4.862e-01 2.796e-01 
g25588 O *L 5.000e-02 *S 4.862e-01 2.796e-01 
g25589 O *L 5.000e-02 *S 4.862e-01 2.796e-01 
g25590 O *L 5.000e-02 *S 4.862e-01 2.796e-01 
g26801 O *L 5.000e-02 *S 2.476e-01 1.861e-01 
g26875 O *L 5.000e-02 *S 4.771e-01 4.199e-01 
g26876 O *L 5.000e-02 *S 4.771e-01 4.199e-01 
g26877 O *L 5.000e-02 *S 4.771e-01 4.199e-01 
g27831 O *L 5.000e-02 *S 3.995e-01 2.761e-01 
g28030 O *L 5.000e-02 *S 1.670e-01 9.714e-02 
g28041 O *L 5.000e-02 *S 4.771e-01 4.199e-01 
g28042 O *L 5.000e-02 *S 4.771e-01 4.199e-01 
g28753 O *L 5.000e-02 *S 3.422e-01 2.397e-01 
g29210 O *L 5.000e-02 *S 4.910e-01 3.529e-01 
g29211 O *L 5.000e-02 *S 2.328e-01 1.531e-01 
g29212 O *L 5.000e-02 *S 2.328e-01 1.531e-01 
g29213 O *L 5.000e-02 *S 2.328e-01 1.531e-01 
g29214 O *L 5.000e-02 *S 2.328e-01 1.531e-01 
g29215 O *L 5.000e-02 *S 2.328e-01 1.531e-01 
g29216 O *L 5.000e-02 *S 2.493e-01 1.942e-01 
g29217 O *L 5.000e-02 *S 2.306e-01 1.815e-01 
g29218 O *L 5.000e-02 *S 2.328e-01 1.531e-01 
g29219 O *L 5.000e-02 *S 2.496e-01 1.944e-01 
g29220 O *L 5.000e-02 *S 2.328e-01 1.531e-01 
g29221 O *L 5.000e-02 *S 2.328e-01 1.531e-01 
g30327 O *L 5.000e-02 *S 2.328e-01 1.531e-01 
g30329 O *L 5.000e-02 *S 2.328e-01 1.531e-01 
g30330 O *L 5.000e-02 *S 2.328e-01 1.531e-01 
g30331 O *L 5.000e-02 *S 2.328e-01 1.531e-01 
g30332 O *L 5.000e-02 *S 2.328e-01 1.531e-01 
g31521 O *L 5.000e-02 *S 4.512e-01 2.127e-01 
g31656 O *L 5.000e-02 *S 5.782e-01 4.138e-01 
g31665 O *L 5.000e-02 *S 5.782e-01 4.138e-01 
g31793 O *L 5.000e-02 *S 3.792e-01 1.796e-01 
g31860 O *L 5.000e-02 *S 2.328e-01 1.531e-01 
g31861 O *L 5.000e-02 *S 2.328e-01 1.531e-01 
g31862 O *L 5.000e-02 *S 2.328e-01 1.531e-01 
g31863 O *L 5.000e-02 *S 2.328e-01 1.531e-01 
g32185 O *L 5.000e-02 *S 1.102e-01 8.405e-02 
g32429 O *L 5.000e-02 *S 4.862e-01 2.796e-01 
g32454 O *L 5.000e-02 *S 4.862e-01 2.796e-01 
g32975 O *L 5.000e-02 *S 2.328e-01 1.531e-01 
g33079 O *L 5.000e-02 *S 4.097e-01 2.096e-01 
g33435 O *L 5.000e-02 *S 4.097e-01 2.096e-01 
g33533 O *L 5.000e-02 *S 2.328e-01 1.531e-01 
g33636 O *L 5.000e-02 *S 4.802e-01 5.244e-01 
g33659 O *L 5.000e-02 *S 2.329e-01 2.556e-01 
g33874 O *L 5.000e-02 *S 4.771e-01 4.199e-01 
g33894 O *L 5.000e-02 *S 4.128e-01 2.111e-01 
g33935 O *L 5.000e-02 *S 4.802e-01 5.244e-01 
g33945 O *L 5.000e-02 *S 4.862e-01 2.796e-01 
g33946 O *L 5.000e-02 *S 4.862e-01 2.796e-01 
g33947 O *L 5.000e-02 *S 4.862e-01 2.796e-01 
g33948 O *L 5.000e-02 *S 4.862e-01 2.796e-01 
g33949 O *L 5.000e-02 *S 4.862e-01 2.796e-01 
g33950 O *L 5.000e-02 *S 4.862e-01 2.796e-01 
g33959 O *L 5.000e-02 *S 2.328e-01 1.531e-01 
g34201 O *L 5.000e-02 *S 5.876e-02 6.777e-02 
g34221 O *L 5.000e-02 *S 7.498e-02 6.124e-02 
g34232 O *L 5.000e-02 *S 4.862e-01 2.796e-01 
g34233 O *L 5.000e-02 *S 4.862e-01 2.796e-01 
g34234 O *L 5.000e-02 *S 4.862e-01 2.796e-01 
g34235 O *L 5.000e-02 *S 4.862e-01 2.796e-01 
g34236 O *L 5.000e-02 *S 4.862e-01 2.796e-01 
g34237 O *L 5.000e-02 *S 4.862e-01 2.796e-01 
g34238 O *L 5.000e-02 *S 4.862e-01 2.796e-01 
g34239 O *L 5.000e-02 *S 4.862e-01 2.796e-01 
g34240 O *L 5.000e-02 *S 4.862e-01 2.796e-01 
g34383 O *L 5.000e-02 *S 5.876e-02 6.777e-02 
g34425 O *L 5.000e-02 *S 5.876e-02 6.777e-02 
g34435 O *L 5.000e-02 *S 2.328e-01 1.531e-01 
g34436 O *L 5.000e-02 *S 2.328e-01 1.531e-01 
g34437 O *L 5.000e-02 *S 2.328e-01 1.531e-01 
g34597 O *L 5.000e-02 *S 4.862e-01 2.796e-01 
g34788 O *L 5.000e-02 *S 2.328e-01 1.531e-01 
g34839 O *L 5.000e-02 *S 1.343e-01 1.168e-01 
g34913 O *L 5.000e-02 *S 7.012e-02 6.547e-02 
g34915 O *L 5.000e-02 *S 2.064e-01 1.839e-01 
g34917 O *L 5.000e-02 *S 4.774e-01 3.484e-01 
g34919 O *L 5.000e-02 *S 4.774e-01 3.484e-01 
g34921 O *L 5.000e-02 *S 4.774e-01 3.484e-01 
g34923 O *L 5.000e-02 *S 4.774e-01 3.484e-01 
g34925 O *L 5.000e-02 *S 7.012e-02 6.547e-02 
g34927 O *L 5.000e-02 *S 6.109e-02 5.542e-02 
g34956 O *L 5.000e-02 *S 2.328e-01 1.531e-01 
g34972 O *L 5.000e-02 *S 7.012e-02 6.547e-02 
g35 I *L 0.000e+00 *S 0.000e+00 0.000e+00 
g36 I *L 0.000e+00 *S 0.000e+00 0.000e+00 
g44 I *L 0.000e+00 *S 0.000e+00 0.000e+00 
g5 I *L 0.000e+00 *S 0.000e+00 0.000e+00 
g53 I *L 0.000e+00 *S 0.000e+00 0.000e+00 
g54 I *L 0.000e+00 *S 0.000e+00 0.000e+00 
g56 I *L 0.000e+00 *S 0.000e+00 0.000e+00 
g57 I *L 0.000e+00 *S 0.000e+00 0.000e+00 
g64 I *L 0.000e+00 *S 0.000e+00 0.000e+00 
g6744 I *L 0.000e+00 *S 0.000e+00 0.000e+00 
g6745 I *L 0.000e+00 *S 0.000e+00 0.000e+00 
g6746 I *L 0.000e+00 *S 0.000e+00 0.000e+00 
g6747 I *L 0.000e+00 *S 0.000e+00 0.000e+00 
g6748 I *L 0.000e+00 *S 0.000e+00 0.000e+00 
g6749 I *L 0.000e+00 *S 0.000e+00 0.000e+00 
g6750 I *L 0.000e+00 *S 0.000e+00 0.000e+00 
g6751 I *L 0.000e+00 *S 0.000e+00 0.000e+00 
g6753 I *L 0.000e+00 *S 0.000e+00 0.000e+00 
g72 I *L 0.000e+00 *S 0.000e+00 0.000e+00 
g7243 O *L 5.000e-02 *S 3.281e-01 2.456e-01 
g7245 O *L 5.000e-02 *S 3.284e-01 2.458e-01 
g7257 O *L 5.000e-02 *S 3.259e-01 2.442e-01 
g7260 O *L 5.000e-02 *S 1.508e-01 1.270e-01 
g73 I *L 0.000e+00 *S 0.000e+00 0.000e+00 
g7540 O *L 5.000e-02 *S 3.268e-01 2.447e-01 
g7916 O *L 5.000e-02 *S 2.491e-01 1.941e-01 
g7946 O *L 5.000e-02 *S 4.862e-01 3.497e-01 
g8132 O *L 5.000e-02 *S 3.701e-01 2.732e-01 
g8178 O *L 5.000e-02 *S 2.328e-01 1.531e-01 
g8215 O *L 5.000e-02 *S 3.277e-01 2.453e-01 
g8235 O *L 5.000e-02 *S 2.328e-01 1.531e-01 
g8277 O *L 5.000e-02 *S 6.656e-01 4.564e-01 
g8279 O *L 5.000e-02 *S 3.276e-01 2.452e-01 
g8283 O *L 5.000e-02 *S 2.128e-01 1.693e-01 
g8291 O *L 5.000e-02 *S 1.715e-01 1.411e-01 
g8342 O *L 5.000e-02 *S 6.656e-01 4.564e-01 
g8344 O *L 5.000e-02 *S 3.277e-01 2.453e-01 
g8353 O *L 5.000e-02 *S 2.328e-01 1.531e-01 
g8358 O *L 5.000e-02 *S 2.088e-01 1.666e-01 
g8398 O *L 5.000e-02 *S 6.656e-01 4.564e-01 
g84 I *L 0.000e+00 *S 0.000e+00 0.000e+00 
g8403 O *L 5.000e-02 *S 4.154e-01 3.031e-01 
g8416 O *L 5.000e-02 *S 3.255e-01 2.438e-01 
g8475 O *L 5.000e-02 *S 1.703e-01 1.403e-01 
g8719 O *L 5.000e-02 *S 4.018e-01 2.941e-01 
g8783 O *L 5.000e-02 *S 1.694e-01 1.397e-01 
g8784 O *L 5.000e-02 *S 3.282e-01 2.457e-01 
g8785 O *L 5.000e-02 *S 1.694e-01 1.397e-01 
g8786 O *L 5.000e-02 *S 3.633e-01 2.688e-01 
g8787 O *L 5.000e-02 *S 3.266e-01 2.446e-01 
g8788 O *L 5.000e-02 *S 3.263e-01 2.444e-01 
g8789 O *L 5.000e-02 *S 3.261e-01 2.443e-01 
g8839 O *L 5.000e-02 *S 3.265e-01 2.445e-01 
g8870 O *L 5.000e-02 *S 1.695e-01 1.398e-01 
g8915 O *L 5.000e-02 *S 1.696e-01 1.399e-01 
g8916 O *L 5.000e-02 *S 3.263e-01 2.444e-01 
g8917 O *L 5.000e-02 *S 3.278e-01 2.454e-01 
g8918 O *L 5.000e-02 *S 3.260e-01 2.442e-01 
g8919 O *L 5.000e-02 *S 3.285e-01 2.458e-01 
g8920 O *L 5.000e-02 *S 1.694e-01 1.397e-01 
g90 I *L 0.000e+00 *S 0.000e+00 0.000e+00 
g9019 O *L 5.000e-02 *S 3.242e-01 2.430e-01 
g9048 O *L 5.000e-02 *S 1.708e-01 1.407e-01 
g91 I *L 0.000e+00 *S 0.000e+00 0.000e+00 
g92 I *L 0.000e+00 *S 0.000e+00 0.000e+00 
g9251 O *L 5.000e-02 *S 3.242e-01 2.430e-01 
g9497 O *L 5.000e-02 *S 3.264e-01 2.444e-01 
g9553 O *L 5.000e-02 *S 3.646e-01 2.696e-01 
g9555 O *L 5.000e-02 *S 1.702e-01 1.403e-01 
g9615 O *L 5.000e-02 *S 1.515e-01 1.275e-01 
g9617 O *L 5.000e-02 *S 1.691e-01 1.395e-01 
g9680 O *L 5.000e-02 *S 6.653e-01 4.562e-01 
g9682 O *L 5.000e-02 *S 1.702e-01 1.403e-01 
g9741 O *L 5.000e-02 *S 6.656e-01 4.564e-01 
g9743 O *L 5.000e-02 *S 3.276e-01 2.452e-01 
g9817 O *L 5.000e-02 *S 6.656e-01 4.564e-01 
g99 I *L 0.000e+00 *S 0.000e+00 0.000e+00 
test_si1 I *L 0.000e+00 *S 0.000e+00 0.000e+00 
test_si2 I *L 0.000e+00 *S 0.000e+00 0.000e+00 
test_si3 I *L 0.000e+00 *S 0.000e+00 0.000e+00 
test_si4 I *L 0.000e+00 *S 0.000e+00 0.000e+00 
test_si5 I *L 0.000e+00 *S 0.000e+00 0.000e+00 
test_si6 I *L 0.000e+00 *S 0.000e+00 0.000e+00 
test_si7 I *L 0.000e+00 *S 0.000e+00 0.000e+00 
test_si8 I *L 0.000e+00 *S 0.000e+00 0.000e+00 
test_se I *L 0.000e+00 *S 0.000e+00 0.000e+00 

*R_NET g100 2.323e-02
*DRIVER g100
*CELL NULL
*C2_R1_C1 1.162e-02 1.133e-05 1.162e-02 
*LOADS
*RC U5846:A 6.899e-08
*RC U4795:A0N 6.265e-08
*END

*R_NET g113 4.984e-02
*DRIVER g113
*CELL NULL
*C2_R1_C1 2.492e-02 2.267e-05 2.492e-02 
*LOADS
*RC U5854:A 6.899e-08
*RC U5807:B 7.131e-08
*RC U4803:A 7.082e-08
*RC U4765:B 7.131e-08
*END

*R_NET g114 4.854e-02
*DRIVER g114
*CELL NULL
*C2_R1_C1 2.427e-02 2.267e-05 2.427e-02 
*LOADS
*RC U9342:A0N 6.544e-08
*RC U9342:B0 7.266e-08
*RC U6780:A1 6.796e-08
*RC U5842:A 6.899e-08
*END

*R_NET g115 3.633e-02
*DRIVER g115
*CELL NULL
*C2_R1_C1 1.816e-02 1.700e-05 1.816e-02 
*LOADS
*RC U9342:A1N 6.384e-08
*RC U9342:B1 7.302e-08
*RC U5839:A 6.899e-08
*END

*R_NET g116 2.400e-02
*DRIVER g116
*CELL NULL
*C2_R1_C1 1.200e-02 1.133e-05 1.200e-02 
*LOADS
*RC U6780:B1 6.703e-08
*RC U5850:A 6.899e-08
*END

*R_NET g120 4.854e-02
*DRIVER g120
*CELL NULL
*C2_R1_C1 2.427e-02 2.267e-05 2.427e-02 
*LOADS
*RC U9341:A0N 6.544e-08
*RC U9341:B0 7.266e-08
*RC U8160:A1 6.796e-08
*RC U5855:A 6.899e-08
*END

*R_NET g124 2.400e-02
*DRIVER g124
*CELL NULL
*C2_R1_C1 1.200e-02 1.133e-05 1.200e-02 
*LOADS
*RC U8160:B1 6.703e-08
*RC U5844:A 6.899e-08
*END

*R_NET g125 2.329e-02
*DRIVER g125
*CELL NULL
*C2_R1_C1 1.164e-02 1.133e-05 1.164e-02 
*LOADS
*RC U8752:AN 6.297e-08
*RC U5843:A 6.899e-08
*END

*R_NET g126 3.633e-02
*DRIVER g126
*CELL NULL
*C2_R1_C1 1.816e-02 1.700e-05 1.816e-02 
*LOADS
*RC U9341:A1N 6.384e-08
*RC U9341:B1 7.302e-08
*RC U5853:A 6.899e-08
*END

*R_NET g127 2.506e-02
*DRIVER g127
*CELL NULL
*C2_R1_C1 1.253e-02 1.133e-05 1.253e-02 
*LOADS
*RC U5836:A 6.899e-08
*RC U5707:B1 7.302e-08
*END

*R_NET g134 3.839e-02
*DRIVER g134
*CELL NULL
*C2_R1_C1 1.919e-02 1.700e-05 1.919e-02 
*LOADS
*RC U125:B0 7.908e-08
*RC U5841:A 6.899e-08
*RC U4806:A 6.945e-08
*END

*R_NET g135 2.417e-02
*DRIVER g135
*CELL NULL
*C2_R1_C1 1.209e-02 1.133e-05 1.209e-02 
*LOADS
*RC U5838:A 6.899e-08
*RC U4840:B0 6.798e-08
*END

*R_NET g35 6.352e-01
*DRIVER g35
*CELL NULL
*C2_R1_C1 3.176e-01 6.233e-05 3.176e-01 
*LOADS
*RC U268:A 2.922e-07
*RC U267:A 2.922e-07
*RC U266:A 2.922e-07
*RC U265:A 2.922e-07
*RC U264:A 2.922e-07
*RC U263:A 2.922e-07
*RC U262:A 2.922e-07
*RC U261:A 2.922e-07
*RC U352:A 4.207e-07
*RC U355:A 4.207e-07
*RC U374:A 4.207e-07
*END

*R_NET g36 1.218e-02
*DRIVER g36
*CELL NULL
*C2_R1_C1 6.088e-03 5.667e-06 6.088e-03 
*LOADS
*RC U5593:A 6.899e-08
*END

*R_NET g44 3.548e-02
*DRIVER g44
*CELL NULL
*C2_R1_C1 1.774e-02 1.700e-05 1.774e-02 
*LOADS
*RC U5591:A 6.899e-08
*RC U5325:B 6.682e-08
*RC U5319:B 6.524e-08
*END

*R_NET g5 1.226e-02
*DRIVER g5
*CELL NULL
*C2_R1_C1 6.128e-03 5.667e-06 6.128e-03 
*LOADS
*RC U6778:A 6.945e-08
*END

*R_NET g53 1.787e-01
*DRIVER g53
*CELL NULL
*C2_R1_C1 8.937e-02 2.833e-05 8.937e-02 
*LOADS
*RC U79:A 2.922e-07
*RC U160:A 2.922e-07
*RC U318:A 2.922e-07
*RC U364:C 6.735e-08
*RC U5851:A 6.899e-08
*END

*R_NET g54 2.490e-01
*DRIVER g54
*CELL NULL
*C2_R1_C1 1.245e-01 2.833e-05 1.245e-01 
*LOADS
*RC U162:A 2.922e-07
*RC U130:A 2.922e-07
*RC g24162 3.400e-07
*RC U234:A 4.207e-07
*RC U364:A 6.575e-08
*END

*R_NET g56 1.189e-01
*DRIVER g56
*CELL NULL
*C2_R1_C1 5.946e-02 3.400e-05 5.946e-02 
*LOADS
*RC U233:B 1.683e-07
*RC U132:B 1.387e-07
*RC U135:B 1.683e-07
*RC U210:A 6.408e-08
*RC U5848:A 6.899e-08
*RC U364:B 6.556e-08
*END

*R_NET g57 6.373e-02
*DRIVER g57
*CELL NULL
*C2_R1_C1 3.187e-02 1.133e-05 3.187e-02 
*LOADS
*RC U317:A 2.922e-07
*RC U5847:A 6.899e-08
*END

*R_NET g64 2.476e-02
*DRIVER g64
*CELL NULL
*C2_R1_C1 1.238e-02 1.133e-05 1.238e-02 
*LOADS
*RC U8807:B 7.131e-08
*RC U5835:A 6.899e-08
*END

*R_NET g6744 2.361e-02
*DRIVER g6744
*CELL NULL
*C2_R1_C1 1.181e-02 1.133e-05 1.181e-02 
*LOADS
*RC U9176:A1 6.480e-08
*RC U5865:A 6.899e-08
*END

*R_NET g6745 2.329e-02
*DRIVER g6745
*CELL NULL
*C2_R1_C1 1.164e-02 1.133e-05 1.164e-02 
*LOADS
*RC U8753:AN 6.297e-08
*RC U5864:A 6.899e-08
*END

*R_NET g6746 1.218e-02
*DRIVER g6746
*CELL NULL
*C2_R1_C1 6.088e-03 5.667e-06 6.088e-03 
*LOADS
*RC U5863:A 6.899e-08
*END

*R_NET g6747 1.218e-02
*DRIVER g6747
*CELL NULL
*C2_R1_C1 6.088e-03 5.667e-06 6.088e-03 
*LOADS
*RC U5862:A 6.899e-08
*END

*R_NET g6748 3.505e-02
*DRIVER g6748
*CELL NULL
*C2_R1_C1 1.752e-02 1.700e-05 1.752e-02 
*LOADS
*RC U9626:A1 6.480e-08
*RC U9569:A1 6.480e-08
*RC U5861:A 6.899e-08
*END

*R_NET g6749 3.505e-02
*DRIVER g6749
*CELL NULL
*C2_R1_C1 1.752e-02 1.700e-05 1.752e-02 
*LOADS
*RC U9447:A1 6.480e-08
*RC U9373:A1 6.480e-08
*RC U5860:A 6.899e-08
*END

*R_NET g6750 3.505e-02
*DRIVER g6750
*CELL NULL
*C2_R1_C1 1.752e-02 1.700e-05 1.752e-02 
*LOADS
*RC U9577:A1 6.480e-08
*RC U9485:A1 6.480e-08
*RC U5859:A 6.899e-08
*END

*R_NET g6751 1.218e-02
*DRIVER g6751
*CELL NULL
*C2_R1_C1 6.088e-03 5.667e-06 6.088e-03 
*LOADS
*RC U5858:A 6.899e-08
*END

*R_NET g6753 1.218e-02
*DRIVER g6753
*CELL NULL
*C2_R1_C1 6.088e-03 5.667e-06 6.088e-03 
*LOADS
*RC U5857:A 6.899e-08
*END

*R_NET g72 1.567e-01
*DRIVER g72
*CELL NULL
*C2_R1_C1 7.837e-02 4.533e-05 7.837e-02 
*LOADS
*RC U103:A0N 8.042e-08
*RC U192:A 1.514e-07
*RC U191:A 2.922e-07
*RC U230:A1N 8.106e-08
*RC U242:A0 6.983e-08
*RC U8954:A 6.738e-08
*RC U8156:A 7.299e-08
*RC U4798:A 7.299e-08
*END

*R_NET g73 2.249e-01
*DRIVER g73
*CELL NULL
*C2_R1_C1 1.125e-01 5.667e-05 1.125e-01 
*LOADS
*RC U103:B1 1.260e-07
*RC U190:B1 6.526e-08
*RC U189:A 2.922e-07
*RC U231:A 2.922e-07
*RC U243:A 1.514e-07
*RC U9631:A0 6.765e-08
*RC U8954:B 6.682e-08
*RC U8157:A 7.299e-08
*RC U5782:B0 6.921e-08
*RC U4798:B 7.093e-08
*END

*R_NET g84 3.513e-02
*DRIVER g84
*CELL NULL
*C2_R1_C1 1.756e-02 1.700e-05 1.756e-02 
*LOADS
*RC U5856:A 6.899e-08
*RC U5564:A0N 6.265e-08
*RC U5564:B0 6.741e-08
*END

*R_NET g90 2.429e-02
*DRIVER g90
*CELL NULL
*C2_R1_C1 1.215e-02 1.133e-05 1.215e-02 
*LOADS
*RC U9456:A0 6.866e-08
*RC U5837:A 6.899e-08
*END

*R_NET g91 3.532e-02
*DRIVER g91
*CELL NULL
*C2_R1_C1 1.766e-02 1.700e-05 1.766e-02 
*LOADS
*RC U5592:A 6.899e-08
*RC U5326:B 6.524e-08
*RC U5270:C 6.592e-08
*END

*R_NET g92 2.539e-02
*DRIVER g92
*CELL NULL
*C2_R1_C1 1.269e-02 1.133e-05 1.269e-02 
*LOADS
*RC U5849:A 6.899e-08
*RC U5710:A1 7.487e-08
*END

*R_NET g99 2.646e-02
*DRIVER g99
*CELL NULL
*C2_R1_C1 1.323e-02 1.133e-05 1.323e-02 
*LOADS
*RC U125:A1 8.092e-08
*RC U5852:A 6.899e-08
*END

*R_NET g10122 9.499e-02
*DRIVER DFF_739_I1_Q_reg:Q
*CELL SDFFQX4
*C2_R1_C1 4.750e-02 2.267e-05 4.750e-02 
*LOADS
*RC DFF_740_I1_Q_reg:SI 6.373e-08
*RC DFF_325_I1_Q_reg:D 6.588e-08
*RC g10122 3.400e-07
*RC U7589:A1 6.869e-08
*END

*R_NET g10306 9.436e-02
*DRIVER DFF_1265_I1_Q_reg:Q
*CELL SDFFQX4
*C2_R1_C1 4.718e-02 2.267e-05 4.718e-02 
*LOADS
*RC DFF_663_I1_Q_reg:D 6.606e-08
*RC DFF_1266_I1_Q_reg:SI 6.372e-08
*RC g10306 3.400e-07
*RC U6478:A 6.496e-08
*END

*R_NET g10500 9.446e-02
*DRIVER DFF_185_I1_Q_reg:Q
*CELL SDFFQX2
*C2_R1_C1 4.723e-02 2.267e-05 4.723e-02 
*LOADS
*RC DFF_186_I1_Q_reg:SI 6.372e-08
*RC DFF_791_I1_Q_reg:D 6.588e-08
*RC g10500 3.400e-07
*RC U6249:A1 6.568e-08
*END

*R_NET g10527 9.450e-02
*DRIVER DFF_1072_I1_Q_reg:Q
*CELL SDFFQX2
*C2_R1_C1 4.725e-02 2.267e-05 4.725e-02 
*LOADS
*RC DFF_171_I1_Q_reg:D 6.606e-08
*RC DFF_1073_I1_Q_reg:SI 6.376e-08
*RC g10527 3.400e-07
*RC U6261:A1 6.568e-08
*END

*R_NET g11349 1.534e-01
*DRIVER DFF_819_I1_Q_reg:Q
*CELL SDFFQX2
*C2_R1_C1 7.668e-02 5.100e-05 7.668e-02 
*LOADS
*RC DFF_529_I1_Q_reg:D 6.308e-08
*RC DFF_820_I1_Q_reg:SI 6.373e-08
*RC g11349 3.400e-07
*RC U8893:B1 6.796e-08
*RC U7112:A1N 6.399e-08
*RC U7112:B1 6.702e-08
*RC U5535:B0 6.737e-08
*RC U5534:B0 6.737e-08
*RC U5533:A 6.857e-08
*END

*R_NET g11388 1.531e-01
*DRIVER DFF_1420_I1_Q_reg:Q
*CELL SDFFQX4
*C2_R1_C1 7.656e-02 5.100e-05 7.656e-02 
*LOADS
*RC DFF_468_I1_Q_reg:D 6.308e-08
*RC DFF_1422_I1_Q_reg:SI 6.373e-08
*RC g11388 3.400e-07
*RC U7062:A0N 6.265e-08
*RC U7062:B0 6.741e-08
*RC U5874:B1 6.796e-08
*RC U5541:A0 6.713e-08
*RC U5540:A0 6.713e-08
*RC U5539:A 6.857e-08
*END

*R_NET g11418 1.533e-01
*DRIVER DFF_1001_I1_Q_reg:Q
*CELL SDFFQX2
*C2_R1_C1 7.664e-02 5.100e-05 7.664e-02 
*LOADS
*RC DFF_401_I1_Q_reg:D 6.308e-08
*RC DFF_1002_I1_Q_reg:SI 6.372e-08
*RC g11418 3.400e-07
*RC U8749:B1 6.796e-08
*RC U7404:A1N 6.399e-08
*RC U7404:B1 6.702e-08
*RC U5544:A0 6.713e-08
*RC U5543:A0 6.713e-08
*RC U5542:A 6.857e-08
*END

*R_NET g11447 9.497e-02
*DRIVER DFF_1234_I1_Q_reg:Q
*CELL SDFFQX4
*C2_R1_C1 4.748e-02 2.267e-05 4.748e-02 
*LOADS
*RC DFF_480_I1_Q_reg:D 6.606e-08
*RC DFF_1235_I1_Q_reg:SI 6.372e-08
*RC g11447 3.400e-07
*RC U8076:C 6.839e-08
*END

*R_NET g11678 9.516e-02
*DRIVER DFF_1081_I1_Q_reg:Q
*CELL SDFFQX2
*C2_R1_C1 4.758e-02 2.267e-05 4.758e-02 
*LOADS
*RC DFF_256_I1_Q_reg:D 6.606e-08
*RC DFF_1082_I1_Q_reg:SI 6.373e-08
*RC g11678 3.400e-07
*RC U5339:A 6.945e-08
*END

*R_NET g11770 9.490e-02
*DRIVER DFF_389_I1_Q_reg:Q
*CELL SDFFQX2
*C2_R1_C1 4.745e-02 2.267e-05 4.745e-02 
*LOADS
*RC DFF_390_I1_Q_reg:SI 6.373e-08
*RC DFF_1286_I1_Q_reg:D 6.606e-08
*RC g11770 3.400e-07
*RC U7279:B 6.796e-08
*END

*R_NET g12184 9.345e-02
*DRIVER DFF_515_I1_Q_reg:Q
*CELL SDFFQX4
*C2_R1_C1 4.673e-02 2.267e-05 4.673e-02 
*LOADS
*RC DFF_517_I1_Q_reg:SI 6.373e-08
*RC DFF_1081_I1_Q_reg:D 6.308e-08
*RC g12184 3.400e-07
*RC U6074:A1N 6.276e-08
*END

*R_NET g12238 1.408e-01
*DRIVER DFF_165_I1_Q_reg:Q
*CELL SDFFQX4
*C2_R1_C1 7.040e-02 4.533e-05 7.040e-02 
*LOADS
*RC U344:B0 6.409e-08
*RC U343:B0 6.409e-08
*RC DFF_655_I1_Q_reg:D 6.308e-08
*RC g12238 3.400e-07
*RC U8891:B1 6.796e-08
*RC U8097:A0N 6.265e-08
*RC U8097:B0 6.741e-08
*RC U5529:A 6.857e-08
*END

*R_NET g12300 1.534e-01
*DRIVER DFF_46_I1_Q_reg:Q
*CELL SDFFQX2
*C2_R1_C1 7.671e-02 5.100e-05 7.671e-02 
*LOADS
*RC DFF_47_I1_Q_reg:SI 6.376e-08
*RC DFF_1335_I1_Q_reg:D 6.308e-08
*RC g12300 3.400e-07
*RC U8888:B1 6.796e-08
*RC U7700:A1N 6.399e-08
*RC U7700:B1 6.702e-08
*RC U5550:A0 6.713e-08
*RC U5549:A1 6.782e-08
*RC U5548:A 6.857e-08
*END

*R_NET g12350 1.534e-01
*DRIVER DFF_30_I1_Q_reg:Q
*CELL SDFFQX4
*C2_R1_C1 7.668e-02 5.100e-05 7.668e-02 
*LOADS
*RC DFF_326_I1_Q_reg:D 6.308e-08
*RC DFF_31_I1_Q_reg:SI 6.373e-08
*RC g12350 3.400e-07
*RC U8746:B1 6.796e-08
*RC U6287:A1N 6.399e-08
*RC U6287:B1 6.702e-08
*RC U5538:A 6.857e-08
*RC U5537:B0 6.737e-08
*RC U5536:B0 6.737e-08
*END

*R_NET g12368 9.398e-02
*DRIVER DFF_752_I1_Q_reg:Q
*CELL SDFFQX4
*C2_R1_C1 4.699e-02 2.267e-05 4.699e-02 
*LOADS
*RC DFF_109_I1_Q_reg:D 6.606e-08
*RC DFF_753_I1_Q_reg:SI 6.372e-08
*RC g12368 3.400e-07
*RC U6682:A1N 6.276e-08
*END

*R_NET g12422 1.538e-01
*DRIVER DFF_554_I1_Q_reg:Q
*CELL SDFFQX4
*C2_R1_C1 7.690e-02 5.100e-05 7.690e-02 
*LOADS
*RC DFF_188_I1_Q_reg:D 6.606e-08
*RC DFF_555_I1_Q_reg:SI 6.372e-08
*RC g12422 3.400e-07
*RC U8751:B1 6.796e-08
*RC U7263:A1N 6.399e-08
*RC U7263:B1 6.702e-08
*RC U5532:B0 6.737e-08
*RC U5531:B1 6.683e-08
*RC U5530:A 6.857e-08
*END

*R_NET g12470 1.539e-01
*DRIVER DFF_1158_I1_Q_reg:Q
*CELL SDFFQX2
*C2_R1_C1 7.696e-02 5.100e-05 7.696e-02 
*LOADS
*RC DFF_806_I1_Q_reg:D 6.606e-08
*RC DFF_1159_I1_Q_reg:SI 6.372e-08
*RC g12470 3.400e-07
*RC U7650:A1N 6.399e-08
*RC U7650:B1 6.702e-08
*RC U5869:B1 6.796e-08
*RC U5547:A0 6.713e-08
*RC U5546:A1 6.782e-08
*RC U5545:A 6.857e-08
*END

*R_NET g12832 7.125e-02
*DRIVER DFF_1411_I1_Q_reg:Q
*CELL SDFFQX1
*C2_R1_C1 3.562e-02 1.133e-05 3.562e-02 
*LOADS
*RC DFF_1412_I1_Q_reg:SI 6.373e-08
*RC g12832 3.400e-07
*END

*R_NET g12833 6.000e-02
*DRIVER U6778:Y
*CELL INVX1
*C2_R1_C1 3.000e-02 5.667e-06 3.000e-02 
*LOADS
*RC g12833 3.400e-07
*END

*R_NET g12919 1.655e-01
*DRIVER DFF_339_I1_Q_reg:Q
*CELL SDFFQX4
*C2_R1_C1 8.277e-02 5.667e-05 8.277e-02 
*LOADS
*RC U13:A 6.352e-08
*RC DFF_828_I1_Q_reg:D 6.308e-08
*RC DFF_340_I1_Q_reg:SI 6.372e-08
*RC g12919 3.400e-07
*RC U8799:A 6.644e-08
*RC U7992:A0 6.829e-08
*RC U7991:B 7.093e-08
*RC U7459:A 6.644e-08
*RC U6833:A 6.435e-08
*RC U6180:B 7.131e-08
*END

*R_NET g12923 1.692e-01
*DRIVER DFF_1275_I1_Q_reg:Q
*CELL SDFFQX4
*C2_R1_C1 8.460e-02 5.667e-05 8.460e-02 
*LOADS
*RC DFF_481_I1_Q_reg:D 6.212e-08
*RC DFF_1276_I1_Q_reg:SI 6.372e-08
*RC g12923 3.400e-07
*RC U9498:A0 6.829e-08
*RC U8999:B 7.093e-08
*RC U8817:A 6.644e-08
*RC U7513:A 6.644e-08
*RC U7019:A 6.435e-08
*RC U6218:B 8.800e-08
*RC U6210:A 6.857e-08
*END

*R_NET g13039 1.183e-01
*DRIVER DFF_616_I1_Q_reg:Q
*CELL SDFFQX2
*C2_R1_C1 5.914e-02 3.400e-05 5.914e-02 
*LOADS
*RC DFF_765_I1_Q_reg:D 6.606e-08
*RC DFF_617_I1_Q_reg:SI 6.372e-08
*RC g13039 3.400e-07
*RC U8092:A0 6.713e-08
*RC U8081:A0 6.542e-08
*RC U5447:B 6.796e-08
*END

*R_NET g13049 1.182e-01
*DRIVER DFF_1352_I1_Q_reg:Q
*CELL SDFFQX4
*C2_R1_C1 5.908e-02 3.400e-05 5.908e-02 
*LOADS
*RC DFF_695_I1_Q_reg:D 6.308e-08
*RC DFF_1354_I1_Q_reg:SI 6.376e-08
*RC g13049 3.400e-07
*RC U7694:B0 6.737e-08
*RC U7688:B0 6.737e-08
*RC U5443:B 6.796e-08
*END

*R_NET g13068 1.186e-01
*DRIVER DFF_1087_I1_Q_reg:Q
*CELL SDFFQX4
*C2_R1_C1 5.929e-02 3.400e-05 5.929e-02 
*LOADS
*RC DFF_848_I1_Q_reg:D 6.606e-08
*RC DFF_1089_I1_Q_reg:SI 6.373e-08
*RC g13068 3.400e-07
*RC U6280:A0 6.713e-08
*RC U6270:A0 6.713e-08
*RC U5445:B 6.796e-08
*END

*R_NET g13085 1.186e-01
*DRIVER DFF_1119_I1_Q_reg:Q
*CELL SDFFQX4
*C2_R1_C1 5.929e-02 3.400e-05 5.929e-02 
*LOADS
*RC DFF_970_I1_Q_reg:D 6.606e-08
*RC DFF_1120_I1_Q_reg:SI 6.372e-08
*RC g13085 3.400e-07
*RC U7257:A0 6.713e-08
*RC U7249:A0 6.713e-08
*RC U5446:B 6.796e-08
*END

*R_NET g13099 1.181e-01
*DRIVER DFF_163_I1_Q_reg:Q
*CELL SDFFQX4
*C2_R1_C1 5.904e-02 3.400e-05 5.904e-02 
*LOADS
*RC DFF_971_I1_Q_reg:D 6.308e-08
*RC DFF_164_I1_Q_reg:SI 6.372e-08
*RC g13099 3.400e-07
*RC U7645:B0 6.737e-08
*RC U7639:B1 6.683e-08
*RC U5870:A 6.818e-08
*END

*R_NET g13259 1.443e-01
*DRIVER DFF_600_I1_Q_reg:Q
*CELL SDFFQX4
*C2_R1_C1 7.215e-02 4.533e-05 7.215e-02 
*LOADS
*RC DFF_698_I1_Q_reg:D 6.212e-08
*RC DFF_601_I1_Q_reg:SI 6.372e-08
*RC g13259 3.400e-07